39
Coordinates from ORCA-job 002-GL-M/002-GL-M
  O   -1.73040142313656      9.38397640212783      5.37541036677943
  O   -0.03673609153995     11.56078996160314      5.61482717366242
  O   -1.69064432333474     11.66196323284497      2.49383998676613
  O   2.46777772700003     10.24623777594902      5.17440565773710
  O   -4.44726219401995     11.45856688031394      2.73010494955032
  O   2.43673921472798      8.39260037707265      3.22409123969513
  C   -1.23156946559067     10.03906379598120      4.21770127211606
  C   0.16161584605220     10.67779866940461      4.51715926528736
  C   -2.22132759754463     11.13876986340311      3.70415713780192
  C   1.23234861908634      9.59620164766033      4.92631206263759
  C   -3.64216112783877     10.51739349367514      3.44081830471289
  C   1.38847146387338      8.50899982879543      3.81825184503705
  H   -1.13587014082719      9.28979931217096      3.42766105196819
  H   0.50805466778592     11.20786394589306      3.62067260418459
  H   -2.30340996548682     11.92256472858259      4.46733755254853
  H   0.87692375572337      9.09777040524664      5.83752573083992
  H   -4.09832583543130     10.19097886504903      4.38259912120211
  H   -3.53391277932270      9.63567997817893      2.80069740332206
  H   -1.60530313230337      9.97690638363021      6.14208222590376
  H   0.83263467856136     11.90046315939816      5.90316354205694
  H   0.49795136688931      7.87155164390960      3.61635188405627
  H   -2.43424327047340     12.01158178934846      1.96370154693832
  H   3.11575479881588      9.93261492329594      4.51038080746010
  H   -4.78576641126716     12.13518594601899      3.34631435841348
  C   -2.14164588581706      6.22127490504548      3.17270989562634
  N   -2.76366861580336      6.88756934728445      4.19255896842125
  H   -3.69966939456601      6.60643124112186      4.43406352166869
  H   -2.30982333708215      7.62822335885485      4.71482442008546
  N   -2.85291866010216      5.25242597513755      2.56897565040774
  C   -2.20220922077316      4.62621475521562      1.57532388516344
  N   -2.87765655607996      3.63027624460081      0.91843341581944
  H   -2.42661489867728      3.13377110470841      0.16748021576942
  H   -3.81922925472582      3.40186174530360      1.19248393768930
  N   -0.94844225811625      4.88410841161256      1.16697355873154
  C   -0.33947393942092      5.87180043777628      1.84508411111931
  N   0.94420383429517      6.16489048452874      1.46164923437768
  H   1.35033659726734      5.62215001308567      0.71690945954524
  H   1.50193930071682      6.86589477980597      1.92660236986028
  N   -0.88363609251377      6.58109418736396      2.85190026503706
