29
Coordinates from ORCA-job pos3_job2/pos3_job2
  N   -0.05017992887667     -1.49397892948497     -0.92995974954975
  N   -2.11875472516850     -0.38155056344302     -0.44913484312013
  N   1.14041772055333     -2.62064600209400      0.69088634931439
  N   -3.07864841592813     -0.45217554521833      1.64284208960972
  N   -1.19701933356637     -0.32962965836209     -2.56553626355009
  C   0.02840159710344     -1.87851451473380      0.35098508505803
  C   -2.04320464861534     -0.81548221743427      0.81634149007722
  C   -0.96214055023905     -1.57645874308492      1.28867404670985
  C   -1.11485572741473     -0.74590846033150     -1.25495988446361
  H   -0.89964529496885     -1.90031655421671      2.30835009866980
  H   1.90073781578974     -2.67772884819056      0.03381499156385
  H   1.31359664359288     -2.87472139989164      1.64846893683430
  H   -3.13544996274539     -0.79360425637727      2.58678837593329
  H   -3.85894124075170      0.04726413512075      1.24829078364153
  H   -1.93911912049755      0.29525001457617     -2.83279990092381
  H   -0.43849504307410     -0.52209239193686     -3.20138011118037
  H   -1.98312646408885     -2.66203681180250     -3.05740547669328
  C   -1.73926250738787     -3.98596403761653     -1.35806306546702
  C   0.06928239718987     -3.36279237865253     -3.09648928386306
  C   0.58703322545052     -4.93052306107647     -1.19607559828913
  C   -1.43730489150096     -3.57251647461539     -2.81589016274613
  O   -2.76550618725501     -3.72249231144700     -0.78391882975438
  O   0.49614691108605     -2.61453210204434     -3.94031841458876
  N   0.92163046487643     -4.20430078974852     -2.35515037249651
  N   -0.74167524139172     -4.77890395334652     -0.75824156618741
  O   1.38999568741440     -5.62127546578339     -0.61196517264910
  H   1.90391549074421     -4.20482518033248     -2.60482777036390
  H   -0.94527377317417     -5.16878189759951      0.15497073673143
  H   -1.79432489615582     -4.36979160083138     -3.47430651925690
