52
Coordinates from ORCA-job 004-GL-M-BA-1/004-GL-M-BA-1
  O   -0.96805806362880      9.47896729036510      5.51533972242585
  O   0.07281053021571     12.01563730858707      4.92952499668032
  O   -2.29981679707856     11.16814876509579      2.53563972731301
  O   2.64751070907748     11.15380776111122      3.92651153428846
  O   -4.74711878068282     10.40551526501667      3.61451151121001
  O   2.53590839349356      8.90040225994726      2.45554854136233
  C   -0.99299089733655     10.00454923039520      4.19616665158852
  C   0.21375877444225     10.97098034409231      3.97480587747010
  C   -2.33718785152357     10.74923079616473      3.89337630309474
  C   1.59528199161929     10.24815668066353      4.21579196979298
  C   -3.56238330579845      9.78875796878336      4.12119500202880
  C   1.71857315185399      8.95854456225680      3.34698099163816
  H   -0.92033832474364      9.16219266012729      3.50322559031574
  H   0.18043202194200     11.34785610693837      2.94445899120405
  H   -2.42067299962537     11.61065611070116      4.56755973029673
  H   1.63786996249532      9.94851966507076      5.27077063461406
  H   -3.64445259525013      9.51025199795073      5.17854766746369
  H   -3.40561936681398      8.86932817595093      3.54847850714073
  H   -0.84883236068310     10.21846715867186      6.14241321433929
  H   0.85452719329426     12.59857269070207      4.87424233584824
  H   1.02030974685968      8.12436002744746      3.58002838203931
  H   -3.22160468509777     11.26912180919945      2.22549022175601
  H   3.12653233678031     10.82488425402685      3.13835869197017
  H   -5.07386065624484     11.06576414341722      4.25422193413703
  C   -1.45805998841834      6.11476292037597      3.74654050735889
  N   -1.87470759885836      6.74805510529322      4.87431580843113
  H   -2.73319610125909      6.46586819590630      5.33667329512878
  H   -1.37371265536725      7.55722437664076      5.22099322675409
  N   -2.18424403750578      5.05766621704061      3.31405548669206
  C   -1.71031470153248      4.46894019424469      2.19366228649611
  N   -2.38459765758972      3.39414637104272      1.69726725986049
  H   -2.02607786253757      2.95916228754235      0.86259603299493
  H   -3.20297502978297      3.01359167187635      2.16215727776873
  N   -0.61723119134351      4.85440638355820      1.51567363928929
  C   0.01933015809197      5.91758950402216      2.03537902802706
  N   1.13761874781142      6.33566764584909      1.36715241500629
  H   1.41283371663303      5.82836562196705      0.54150590950420
  H   1.69559637220291      7.11683346330288      1.68230498526244
  N   -0.35194560355313      6.58886072531372      3.14106812340045
  C   -5.02384758644547      5.03125780784759      5.57184736465370
  N   -4.52736321260961      4.21577601739919      4.55121311439970
  H   -3.62915236886405      4.52876183789346      4.09088417370025
  C   -5.15575470634021      3.07059568287773      4.05971818954823
  O   -4.74483804679262      2.48092436445384      3.08498697865469
  C   -6.37725202180639      2.54196726550336      4.85345611848335
  H   -6.02612248985097      1.74211586454306      5.51286348629797
  H   -7.09119916477568      2.09685965046474      4.16047833223344
  C   -7.09086732252410      3.59926812898658      5.72573354084409
  O   -8.22491088482028      3.48444289711598      6.11829620479680
  O   -4.42372109143978      5.99886660275238      5.99497135461355
  N   -6.29366034966570      4.70045646036592      6.08239025992305
  H   -6.68312545062230      5.36286370113616      6.74461687485748
