29
Coordinates from ORCA-job pos4_job2/pos4_job2
  N   -5.57088323443170     -7.62290008392720      0.80678914429773
  C   -4.41399454216075     -6.98924159466171      0.42327346104653
  N   -4.49525667457614     -5.66200852210814      0.26872165887968
  C   -3.22750662449935     -7.69848403838297      0.20901447188088
  C   -3.37126499739580     -5.03564286660980     -0.10457808230953
  C   -2.11088975645235     -6.94396800639014     -0.17633133820793
  N   -2.16948169078674     -5.60660685972847     -0.33672141878625
  N   -3.47319838820525     -3.67919872147841     -0.25520933644503
  N   -0.91034839505820     -7.55806074820042     -0.40541122364424
  H   -4.37652450819491     -3.26357577442031     -0.10163425747388
  H   -6.40210102375150     -7.07332547185177      0.94906768212546
  H   -5.60117737684331     -8.61806348518717      0.94532379230851
  H   -2.70600874478557     -3.11327070622791     -0.60133691465353
  H   -0.83397714515365     -8.55205126964910     -0.28010879945583
  H   -0.07865297179372     -7.02754361621021     -0.63890678842294
  H   2.95158421559706     -3.63441933597150     -0.28463270507260
  O   1.40767936540476     -5.94580664642659     -0.96169691382024
  O   3.13298785028227     -1.87197844520140     -2.56247500918112
  C   -0.14843178850722     -2.75978909643006     -1.38199526859623
  C   1.29983286901748     -4.74774758272435     -1.09987465531667
  C   2.28383340117714     -2.50863620662933     -1.99058849103500
  N   0.06366013820077     -4.10096856577621     -1.04869586453755
  N   0.96304373906235     -2.04521821278153     -1.87158415178577
  O   -1.23169495035974     -2.21785784978416     -1.29624849156306
  C   2.55267827620168     -3.85356205124550     -1.27997512801162
  H   -0.79014648486152     -4.66930918531979     -0.78347353290965
  H   0.76056874374828     -1.11267934778533     -2.21558329633066
  H   3.31826595108600     -4.40922652661931     -1.82057969714534
  H   -3.16830524896032     -8.76055918227086      0.33316115516593
