31
Coordinates from ORCA-job 006-MEL-UA_job2
  N       -5.251705000     -7.658659000      1.031666000
  C       -4.207550000     -6.931134000      0.523912000
  N       -4.467057000     -5.664034000      0.162627000
  N       -3.020407000     -7.551128000      0.433230000
  C       -3.407733000     -4.998005000     -0.328111000
  C       -2.032095000     -6.790984000     -0.070450000
  N       -2.162525000     -5.505660000     -0.468950000
  N       -3.620758000     -3.707684000     -0.710577000
  N       -0.808072000     -7.378398000     -0.180770000
  H       -4.547951000     -3.330820000     -0.600730000
  H       -6.160179000     -7.232946000      1.118545000
  H       -5.102244000     -8.612968000      1.316442000
  H       -2.874082000     -3.135392000     -1.095426000
  H       -0.719522000     -8.335915000      0.118224000
  H       -0.002685000     -6.880094000     -0.551189000
  N       -0.019802000     -4.008292000     -1.433576000
  H       -0.835751000     -4.574940000     -1.077130000
  C       -0.295732000     -2.679398000     -1.764406000
  N        0.800377000     -1.917394000     -2.232939000
  H        0.624666000     -0.951269000     -2.478936000
  C        2.043107000     -2.498122000     -2.341810000
  C        2.288742000     -3.774708000     -2.022917000
  N        3.653526000     -4.021209000     -2.257042000
  H        4.127447000     -4.901112000     -2.105789000
  C        4.276092000     -2.865665000     -2.735522000
  O        5.427568000     -2.680268000     -3.048523000
  N        3.214511000     -1.908586000     -2.777334000
  H        3.339902000     -0.953963000     -3.086334000
  O       -1.397276000     -2.173300000     -1.669374000
  C        1.229457000     -4.663277000     -1.522958000
  O        1.372322000     -5.829957000     -1.212394000
