43
Coordinates from ORCA-job 008-MEL-BA-MEL/008-MEL-BA-MEL
  N   -5.44805733065968     -7.56419416641157      0.83535372573052
  C   -4.33965221885991     -6.86155127335831      0.44360707236814
  N   -4.52769345989685     -5.58557011781623      0.06920229858146
  N   -3.16512635653207     -7.51173216938464      0.46950099236826
  C   -3.40726008348529     -4.94484431351903     -0.30419286248849
  C   -2.11249475573785     -6.77539000577047      0.07388379832758
  N   -2.16804685883441     -5.48537426469137     -0.32565634335614
  N   -3.54652181005054     -3.64591107052098     -0.69154967800150
  N   -0.89908326166699     -7.39591287402926      0.08296009791177
  H   -4.47029574700250     -3.24601047843073     -0.66970894391398
  H   -6.34961085599827     -7.11531249527299      0.83236639587847
  H   -5.35312522721738     -8.52402837934548      1.12516590360993
  H   -2.74610798982464     -3.08172160637358     -0.96299237575967
  H   -0.86620831464550     -8.35773835702224      0.37986325841163
  H   -0.05142396649513     -6.92320117912803     -0.21504559640879
  N   0.36375570714519      4.84700525832502     -2.08446140302419
  N   1.76018640492310      3.00608414353094     -1.98487318232381
  H   1.18163225512601      5.43170258770774     -2.14509285718654
  H   3.87546850961588      1.76657114449653     -1.95641059142024
  C   0.50698258368683      3.48832489621252     -1.98933040878178
  C   1.84134490356838      1.66774424300960     -1.89174375078983
  N   3.09519872143514      1.13362979979715     -1.88677648351195
  H   -0.55854698629499      5.25169096271488     -2.09138474998519
  N   -0.61927784849685      2.76099375610811     -1.90871300377460
  H   3.25168863439569      0.13122769175975     -1.84603191950590
  N   0.78731482643955      0.82602359181989     -1.80351062332115
  C   -0.41957746843929      1.43558448061245     -1.81582007449681
  N   -1.53335809915918      0.65488277968296     -1.72994981307777
  H   -2.42939257894550      1.11453447645224     -1.72952340395187
  H   -1.47053854938422     -0.35274658867638     -1.61410575723568
  H   3.40227123068749     -4.32825793978255     -1.42018991974993
  O   1.39112463265452     -5.90652017085857     -0.86270879984503
  O   3.33921109298581     -1.74605531120872     -1.83308993542802
  C   -0.07711008092974     -2.69282187426662     -1.39164333485052
  C   1.28286550245580     -4.75680630946579     -1.22614849302555
  C   2.36032085897957     -2.45521942360468     -1.76304466475647
  N   0.07724860710915     -4.06023711708305     -1.14581272593610
  N   1.07147184204448     -1.93647570575461     -1.64203371063228
  O   -1.17959700223635     -2.16798619992459     -1.35531962714827
  C   2.46607017932470     -3.99445141478997     -1.86598133844784
  H   -0.78149210821777     -4.58904778093945     -0.83531240803557
  H   0.94981739768267     -0.88975434470515     -1.70157964128048
  H   2.50048506475100     -4.25761687709445     -2.92778512573570
