49
Coordinates from ORCA-job 11/11
  C   -0.71948303559078     -0.40505692632565      0.38474250336828
  N   -0.94245841448272      0.43723285351477     -0.63918534450334
  N   0.16206541111119     -1.42110399327958      0.37718581579234
  C   0.84043023827305     -1.55078919860970     -0.77570653515485
  C   -0.20318597191079      0.20369654720412     -1.73747426305722
  N   0.70799561781035     -0.77749594774053     -1.86673454890288
  N   -0.39147507096341      1.02703495685375     -2.81383991976287
  N   1.75561919859893     -2.57040953531983     -0.84534733823518
  N   -1.44809316096463     -0.21886016660759      1.52769534617536
  H   0.16180010908422      0.87151188496898     -3.64033531817570
  H   -1.04955974977615      1.79707042785346     -2.78013286307497
  H   1.88954796606467     -3.17459615322398     -0.05130687516592
  H   2.28826170058034     -2.70516957219854     -1.68891480057927
  H   -1.28310560983879     -0.83361211740972      2.30761853150494
  H   -2.11343398474996      0.54111090229349      1.61162252506442
  C   -2.80592203265086      3.65973905441401     -1.55465414277129
  C   -3.18704903025509      2.53390291998171     -0.58105118659824
  C   -3.38588932291055      2.96917172913158      0.87892896231014
  N   -3.71775705070854      4.31621468717581      1.08166722770779
  N   -3.17877880774850      4.95698877577795     -1.17509168050760
  C   -3.66079595880989      5.31844401821221      0.09618222486069
  O   -3.30520301756696      2.19170417410049      1.80174824631616
  O   -2.25414965189973      3.44293417269690     -2.60874582880328
  C   -3.03421195227377      6.05709043884593     -2.13355045703066
  H   -2.31889246981511      6.79757165311848     -1.76849821689934
  H   -2.67461876642952      5.63857157057392     -3.07393721920818
  H   -4.00038554803596      6.54517139676955     -2.28951562946027
  C   -4.12356087955163      4.76430262360889      2.41749663668001
  H   -3.41288598822207      5.49293346431737      2.81411901976055
  H   -5.11445435776005      5.22446354174258      2.37076719222315
  H   -4.15078193946889      3.89193854163107      3.07095955972131
  H   -4.13901854259985      2.11599650370082     -0.92545826397871
  H   -2.42081355912647      1.74270737174112     -0.62346143692712
  O   -3.97725072082647      6.45756082653544      0.34385465470219
  C   -6.60224304383977      3.75265604475039      0.15000380763299
  N   -6.95963711537959      5.00053954090709      0.48765982114895
  N   -6.15963463150599      3.35908262758691     -1.05614576510834
  C   -6.09126988102437      4.34545015361295     -1.96598412215653
  C   -6.84483318913619      5.89598165105833     -0.51076806628100
  N   -6.41605286159332      5.63005636330778     -1.75846393919532
  N   -7.20439824986379      7.18726784901794     -0.23579626144260
  N   -5.62324098020320      4.01238871252393     -3.21158078218277
  N   -6.66933634909994      2.79602466543447      1.13100845552184
  H   -7.03925318752541      7.90233430570319     -0.92659290373057
  H   -7.43489760153860      7.44332720541374      0.71139351275368
  H   -5.42329606639543      3.05064410588416     -3.43349983471313
  H   -5.59207711024880      4.71414573380398     -3.93312094163188
  H   -6.47191714724331      1.83376574279476      0.90893520414123
  H   -7.03989357898752      3.03906155815074      2.03537023285310
