68
Coordinates from ORCA-job 14/14
  C   -0.70420864792921      4.68359080260735     -0.05135971473725
  C   -0.86816665881705      3.29095133268022      0.58115585543553
  C   -2.29101233322912      2.98478303346546      1.07520407419542
  N   -3.06625022053062      4.08908844366495      1.45594892975188
  N   -1.59270295058020      5.67081369046749      0.40198488708348
  C   -2.73898589790688      5.43422632996661      1.18848820739186
  O   -2.72125768260098      1.86118802796195      1.18619393870367
  O   0.16362470286287      4.93505431798813     -0.85409438823751
  C   -1.38281688385479      7.06472878619875     -0.00638592570305
  H   -0.47614020129604      7.10628424774621     -0.61172766622331
  H   -2.22921747502813      7.42681916425641     -0.59479292905261
  H   -1.26960541987988      7.70516108368531      0.87156824044675
  C   -4.35691254724935      3.81104206069626      2.09614174382041
  H   -4.77854707193648      4.75495671019971      2.44517173839969
  H   -5.04674289686454      3.34238471662328      1.38932205209386
  H   -4.21469365588587      3.13611028563638      2.94280419168270
  H   -0.56454773426444      2.52046521484649     -0.15004765264572
  H   -0.18959688177213      3.22603565990294      1.43566417787627
  O   -3.42542670047121      6.35091818445043      1.57167809362930
  C   0.73068438075879     -0.70603104653501     -3.22627695188608
  N   1.26957502406589      0.51968094670959     -3.35190742406015
  N   -0.20859783340556     -1.05929634142412     -2.33095300448883
  C   -0.61095103186719     -0.07170274141590     -1.50966110969071
  C   0.79242565535725      1.42477195178015     -2.47923957184845
  N   -0.14241514965843      1.19050871453851     -1.54060269100533
  N   1.30854140579228      2.68927596535597     -2.55681421436314
  N   -1.56052074409399     -0.37270478976449     -0.57725690414528
  N   1.18135152786308     -1.67165197411977     -4.08384796473709
  H   0.98065374899287      3.43382130444118     -1.95304811124566
  H   2.00059338560706      2.88125360472177     -3.26231620195879
  H   -1.94634209696310     -1.30781763277786     -0.52457381726906
  H   -1.90365180783048      0.34177691581315      0.05297387735996
  H   0.80730217565993     -2.61326920514980     -4.06500769525143
  H   1.87860246678890     -1.41981851654528     -4.76493145312554
  C   -2.51666865166722     -3.97245893473801     -1.38917988062026
  C   -1.10708816204605     -3.98078948701226     -1.99895225207201
  C   -0.99768145549517     -4.66391770861492     -3.37102565398832
  N   -1.97775572927299     -5.62167656642995     -3.66367222240443
  N   -3.37940495324924     -4.99467555119712     -1.81444536637166
  C   -3.11212126694155     -5.87996319181926     -2.87385612648723
  O   -2.86078613527062     -3.15862246927458     -0.56478863904696
  C   -4.67410809019335     -5.15380480116864     -1.14316979427613
  H   -4.85435585176132     -4.26123571479941     -0.54197523761697
  H   -5.46820766922701     -5.26442811245160     -1.88389714965403
  H   -4.67046295788708     -6.03325072018843     -0.49456885535307
  C   -1.81448930090586     -6.48825924535534     -4.83457348502716
  H   -2.68826010285814     -6.42046206583431     -5.48628048027176
  H   -0.92927395157778     -6.15828096035303     -5.37973739872318
  H   -1.69207547563868     -7.52832256040610     -4.52048381203725
  H   -0.74268422085117     -2.94216609088059     -2.07980011558555
  H   -0.44088758216958     -4.51739482258666     -1.31726828990730
  O   -3.87424031308654     -6.77832335599627     -3.15081705552823
  O   -0.09338326224412     -4.43288340002661     -4.14084528156586
  C   -0.14385698517551     -7.35841886095637     -0.84288163470170
  N   -1.39407847197743     -7.58543569523378     -1.27366084955043
  N   0.31594524451170     -7.57345854953055      0.39882243027284
  C   -0.60130648234995     -8.08078580238439      1.24278186983048
  C   -2.21104474627108     -8.11451668979887     -0.34085080780972
  N   -1.87243896917775     -8.38185810568952      0.93271601884089
  N   -3.49337613190513     -8.40343290399760     -0.71628540932040
  N   -0.19842434650053     -8.31724881035370      2.53097211363810
  N   0.75150064317913     -6.83696700520857     -1.75109544969668
  H   -4.11216972855752     -8.83210422829858     -0.04770895297114
  H   -3.80351820285187     -8.20155462036099     -1.65763013614386
  H   0.74831122622204     -8.10805135215890      2.80345072413465
  H   -0.85095494069809     -8.70169024521931      3.19485105487807
  H   1.71589705409963     -6.74244641007612     -1.47358014842079
  H   0.52142801996275     -6.83700621027179     -2.73140834263855
