68
Coordinates from ORCA-job 15/15
  C   0.41142997823248      1.38283096658940      1.43108989459124
  C   -0.76924716015914      0.51408256960952      0.98008426465868
  C   -1.97408581935363      0.49458676026472      1.92724240330860
  N   -2.09155894182150      1.56689629224756      2.82149014974275
  N   0.12358163638135      2.38921556191702      2.36636316060046
  C   -1.10211285303897      2.54676377957418      3.04422456909248
  O   -2.81505510937705     -0.37435015475337      1.89394128641114
  O   1.52446641594449      1.24149281487327      0.97973259116739
  C   1.17335843523434      3.34719349641029      2.73124737018241
  H   2.06738775374444      3.10324209395210      2.15560018543542
  H   0.85586395951823      4.36742002417018      2.50312579182895
  H   1.39943486538524      3.28374071221863      3.79821592110031
  C   -3.30959046738760      1.62485607097841      3.63715701393311
  H   -3.30052692431386      2.55694094364886      4.20429278334971
  H   -4.19227140519255      1.59490111665991      2.99482702532102
  H   -3.35246066060660      0.77844786680940      4.32748708097896
  H   -1.09459619906266      0.86170034521943     -0.00777205422504
  H   -0.42089439622620     -0.52067563299353      0.81960606034823
  O   -1.27171774489325      3.46745986197208      3.80722696563228
  C   -0.20032140990089     -2.30388410898613     -3.38296716339107
  N   0.52569408860167     -1.18150913480311     -3.52837189847474
  N   -1.33569724743091     -2.42259027649614     -2.66640082220237
  C   -1.71723583076926     -1.27905057629081     -2.06152268024694
  C   0.03576643914254     -0.11530920910107     -2.88147820887148
  N   -1.08007772211898     -0.09734780665197     -2.13503410734523
  N   0.74119615187242      1.05614887857660     -2.98715988180191
  N   -2.86305765402579     -1.29590299089195     -1.30704267575956
  N   0.27748786306652     -3.40463011339427     -4.04956874625668
  H   0.41535372138666      1.88626955923678     -2.52137168525253
  H   1.58849534038462      1.07624221700218     -3.53068770592965
  H   -3.28913948687206     -2.16831914577274     -1.03722706554963
  H   -3.09756466306270     -0.47176827606378     -0.77856697749812
  H   -0.07636362075169     -4.32837316913343     -3.85667507072269
  H   1.18407792429888     -3.31550394673503     -4.48050589326446
  C   -3.90793868119368     -4.36914520862493     -1.95098496374203
  C   -2.92578433633076     -5.53208226721195     -2.17167726005758
  C   -2.21325841594719     -5.53510818652461     -3.53535722472138
  N   -2.81077792957543     -4.79608734069419     -4.56156426108591
  N   -4.40199713481574     -3.73731054647271     -3.09729043093349
  C   -3.86278400808729     -3.87611506527280     -4.39038074122310
  O   -4.26488072295587     -4.03700080311414     -0.84405842615243
  C   -5.44381430214310     -2.71326354385092     -2.95566318002264
  H   -5.86569650574444     -2.79043261148120     -1.95306139968190
  H   -5.02878295701178     -1.71156037720752     -3.09602020376324
  H   -6.22671950100895     -2.87855086873871     -3.69863788256911
  C   -2.22339187015627     -4.84154107185721     -5.90578866673644
  H   -3.01407563550458     -4.95702635196024     -6.64983314918715
  H   -1.66684054743470     -3.92481389563374     -6.11947164208778
  H   -1.54452222216817     -5.69347031497382     -5.95403454666445
  H   -2.15927069877290     -5.48685987543683     -1.38667737978009
  H   -3.47182649639925     -6.47274722165759     -2.06223605657362
  O   -4.28873224068484     -3.23192173751674     -5.31821496353255
  O   -1.19960701464917     -6.16802866064759     -3.72209878194482
  C   0.72332039899794     -4.56116281495726     -1.03175795348035
  N   -0.45696042163505     -4.53318791250013     -0.38726703266320
  N   1.62202238594509     -3.56483778357521     -1.08151226205541
  C   1.25938395272904     -2.45868127086970     -0.40915473645474
  C   -0.70369616888441     -3.37828106404513      0.25740005112589
  N   0.11719866114790     -2.31491208625838      0.28470192855312
  N   -1.88497762347826     -3.27129611465916      0.93976066153891
  N   2.11833559167667     -1.39681675827891     -0.45041348336698
  N   1.04261230085201     -5.70749184935660     -1.71201468051311
  H   -2.15379578807779     -2.38579136997151      1.34924766074325
  H   -2.56989285429470     -4.00814728903725      0.86653080747894
  H   2.96292626782619     -1.48842081032062     -0.99079025101588
  H   1.91604681598672     -0.52569792939543      0.02640620397514
  H   1.90641652226479     -5.74317153683535     -2.22797809843750
  H   0.36536792269967     -6.44700385092476     -1.81446953585916
