68
Coordinates from ORCA-job 21/21
  C   4.66264359673022     -2.04527646996130     -0.09526909419247
  C   3.79088928055348     -1.60278469078351     -1.28039302334252
  C   4.02507069537894     -2.39631903934134     -2.57545958871918
  N   5.26761797657856     -3.02811870619611     -2.70204964237747
  N   5.92845598737314     -2.54748346904244     -0.43735113653061
  C   6.24147325546496     -3.11846108391709     -1.68724171423814
  O   3.21180788549037     -2.43849806561862     -3.46916926933464
  O   4.32630957120352     -1.90443126348166      1.05641980935499
  C   6.90478509348008     -2.78647836646772      0.62921576426418
  H   6.59710049449724     -2.21850601061782      1.50806628289908
  H   6.95686617633218     -3.84609776175811      0.88948534354825
  H   7.89427831982021     -2.45787787831419      0.30485561764443
  C   5.50387564868771     -3.77266909561971     -3.94282887967755
  H   6.54811799038056     -4.08639447977306     -3.96610894186073
  H   4.85383874864088     -4.65166130317113     -3.98300126942390
  H   5.29370799493149     -3.13493248986528     -4.80347484996595
  H   2.72677114665902     -1.67193476048564     -0.99938703610689
  H   4.01182505170673     -0.55156523954024     -1.48178326629141
  O   7.29716579221847     -3.67968282082445     -1.86377240316362
  C   -0.11221449618569     -1.87880862509111     -1.45709087306646
  N   0.84652836156142     -1.87321930867122     -0.51507598563099
  N   -1.43744527053078     -1.80399797204271     -1.21621733935935
  C   -1.74520936949637     -1.65664410062932      0.08404762948443
  C   0.40642414644331     -1.77791657827298      0.74949050001903
  N   -0.88566185591492     -1.65158076225777      1.11184045826680
  N   1.33925032079256     -1.78050555545452      1.74687190876665
  N   -3.07678095398594     -1.49487408741575      0.39436329786479
  N   0.28861137439528     -1.93461172142948     -2.76041064787124
  H   1.02556120546588     -1.70059864200346      2.70000442437714
  H   2.32933910680741     -1.85302906010097      1.54092008891669
  H   -3.73207284688480     -1.28384083397357     -0.34014770107567
  H   -3.32438033484687     -1.30131694259401      1.35139141972385
  H   -0.41175858304597     -2.01266614027460     -3.48057638410501
  H   1.26534766386737     -2.05994001114121     -3.00125636116891
  C   -3.04447966732463     -4.64708589346739     -0.54758650317351
  C   -2.23323313673701     -4.99237543091506     -1.80535350550310
  C   -2.47006898605461     -4.03512371803521     -2.98285438424568
  N   -3.71336316393834     -3.39199146322803     -3.01745542991497
  N   -4.30973157808415     -4.08742722143622     -0.79211317348970
  C   -4.66111534396545     -3.40830756562362     -1.97403906248410
  O   -2.66739564345014     -4.90346743661320      0.57050783711435
  C   -5.27062288092493     -3.98581169514809      0.31041261414695
  H   -4.83441632945948     -4.47259347345635      1.18379337455799
  H   -5.48495438824336     -2.94306429906651      0.55103752658665
  H   -6.20728729982881     -4.48021591264016      0.04184167616921
  C   -3.98943464109186     -2.53180507021080     -4.17216603758754
  H   -5.05185079744024     -2.28399104807523     -4.17530224677818
  H   -3.40311179785082     -1.61046875129188     -4.11736125307298
  H   -3.73145826831843     -3.05924014890900     -5.09244157203663
  H   -1.15894699424302     -5.00587744514066     -1.56162611994747
  H   -2.52019491891925     -5.99864286248655     -2.12142793322594
  O   -5.72403928717702     -2.84031207676765     -2.06719072309394
  O   -1.66636385216472     -3.88419805368231     -3.87405041027930
  C   1.68669890634436     -4.96615631395860     -2.09631129590467
  N   0.75559400796139     -4.91787316190356     -1.13167711311206
  N   3.00976551597304     -5.11819798851665     -1.88939333115416
  C   3.35407759189359     -5.21219961074980     -0.59654122341357
  C   1.22796241311941     -4.99792162520349      0.12425921310718
  N   2.52672147907594     -5.13843483651602      0.45481691418036
  N   0.32536578869108     -4.94526654957900      1.14626338208023
  N   4.69460932952879     -5.38352836847492     -0.31973407977333
  N   1.26011840116940     -4.87300396723865     -3.39322245576551
  H   0.66832987616797     -4.98548462584239      2.09208023465737
  H   -0.67206266681276     -4.89990743430452      0.97108958605586
  H   5.31317437409823     -5.66319880808349     -1.06472121598406
  H   4.95709356329965     -5.58087713735250      0.63311167256883
  H   1.95604533395191     -4.78953809970619     -4.11757496450384
  H   0.29928874518452     -4.61980376624382     -3.59535590040823
