68
Coordinates from ORCA-job 24/24
  C   4.28048949747425     -2.63664046269384     -1.80773071125189
  C   3.97561362270406     -3.58298702958950     -0.63325325920248
  C   3.56168183764953     -2.86066009774846      0.65870362311923
  N   4.17843315071127     -1.62311346367119      0.87477870132823
  N   4.74574836271969     -1.36223477214313     -1.45279932474751
  C   4.77210163526672     -0.85041887690733     -0.14103724393928
  O   2.80155167936676     -3.34351381302582      1.46647614357466
  O   4.17524754002561     -2.97945245031356     -2.96197593561390
  C   5.20766216477610     -0.44936343840351     -2.50526208771756
  H   5.10092605311693     -0.95982578840225     -3.46347775612465
  H   4.60731293223699      0.46379824365334     -2.50930771945067
  H   6.25505372918769     -0.18259459186489     -2.34609319638470
  C   4.00026909808886     -0.94218412943671      2.16253550785314
  H   4.96139997953659     -0.56421338438540      2.51702990579687
  H   3.30330258916390     -0.10501035217828      2.05536904483663
  H   3.60385233566369     -1.66209116027181      2.87921220425642
  H   3.18125874144171     -4.28419734662972     -0.93363023358555
  H   4.87789220555293     -4.16313328237349     -0.42240542487270
  O   5.26774211926469      0.22609119965135      0.09939628183987
  C   0.74403422838574     -0.24250961312895     -0.17321573765278
  N   1.94866293639482      0.36117940562267     -0.13983822940441
  N   -0.29138072905360      0.12421291924266     -0.95246740497967
  C   -0.05287914527505      1.19766095203082     -1.72080383080265
  C   2.05078955683376      1.43471295326787     -0.94432017246642
  N   1.08919171757841      1.90387102171238     -1.75864092911913
  N   3.24048884747000      2.11367446304663     -0.94409361483620
  N   -1.06912026109747      1.61338928702396     -2.54411179384127
  N   0.54998515615148     -1.32029293770350      0.64267026240352
  H   3.33197652538677      2.93560365783358     -1.51758864891289
  H   4.00568670676255      1.79992929112998     -0.36392433616619
  H   -1.95547264788294      1.13666341130935     -2.52186858375638
  H   -0.94274663646594      2.43184383683461     -3.11654094371826
  H   -0.33109389760771     -1.82180291782030      0.62703939304253
  H   1.26956933062721     -1.60236697460842      1.28618719731358
  C   -2.83566822897523     -6.43972172864976     -0.85742884519640
  C   -2.74904851593857     -6.12999302356651     -2.36438468386500
  C   -1.67479635232073     -5.08458933458161     -2.71959596296229
  N   -1.43188781566241     -4.11182511112517     -1.73450516738172
  N   -2.53799792688305     -5.35893427446609     -0.00861367059725
  C   -1.88243345927465     -4.17730835283364     -0.40491803491486
  O   -3.22043238968139     -7.49366123227411     -0.41771687230811
  C   -2.81631513080795     -5.54811391409300      1.41705438545038
  H   -3.88698932100899     -5.68758054609471      1.58271225690132
  H   -2.29254247212192     -6.43127650452533      1.79083536230317
  H   -2.48113699235540     -4.66077253813590      1.95544695663596
  C   -0.56703158885367     -2.97613645828312     -2.07878380293860
  H   -0.44982990067772     -2.95839375469985     -3.16238810146585
  H   -1.01289792435217     -2.03687875600705     -1.73960701589574
  H   0.41729393299006     -3.08657139583301     -1.61890484071087
  H   -2.55502881193680     -7.04781061700491     -2.91648585780084
  H   -3.71967981465505     -5.74116600216207     -2.68519597482832
  O   -1.69206184690018     -3.26728209512419      0.37050199413821
  O   -1.11943210453156     -5.05538795518018     -3.78828372677807
  C   0.81232876189899     -5.98652681908898     -0.68560539660524
  N   0.00269909514332     -7.02560642981093     -0.95028390143064
  N   1.70531130378209     -5.46396230736160     -1.53726685759736
  C   1.79060678486922     -6.09009064893435     -2.72701055902039
  C   0.20800207018561     -7.59141271954956     -2.15365526344488
  N   1.08945651599247     -7.18389558237469     -3.07915733186829
  N   -0.57896334047350     -8.67023908293653     -2.46638043267710
  N   2.67771439259419     -5.58144749790318     -3.63197488786481
  N   0.69600629254118     -5.39905249022669      0.54704783071499
  H   -0.42431224477713     -9.15880894914304     -3.33364149232504
  H   -1.20116595807325     -9.04907291729605     -1.76879119716556
  H   3.15300293209559     -4.70660919999351     -3.43783428280738
  H   2.71604517906005     -5.98678957100786     -4.55368044282631
  H   1.35431743787982     -4.68685322696415      0.84166108665931
  H   0.11409447907262     -5.84485772182744      1.23686758365620
