64
Coordinates from ORCA-job 29/29
  C   -2.51335980787988      6.95250785261411     -0.31469523132171
  N   -2.76980709728322      6.47148107194037      0.92090497227172
  N   -1.28718610482360      7.23766732582912     -0.79428183577043
  C   -0.28693612236607      7.02897162619227      0.07504929389361
  C   -1.68339280548758      6.29721993964434      1.69010404331048
  N   -0.41574321320822      6.55336995328132      1.32898525706454
  N   -1.88142043213013      5.80257881702426      2.95293358780162
  N   0.98279853046079      7.29744599106274     -0.35755588153846
  N   -3.57136938659760      7.14274300086525     -1.14359286858412
  H   -1.08580464970048      5.63302184518327      3.54715755724244
  H   -2.80345430948279      5.52431211460175      3.24811689266796
  H   1.13305198661773      7.59083349724359     -1.30993566830742
  H   1.76546879199937      7.11450634708749      0.24997894726173
  H   -3.39816179022635      7.54007255861208     -2.05211758457695
  H   -4.52259402464831      6.89019971562851     -0.85417731913429
  C   -0.81686398500988      4.43787621603601     -2.02977005115772
  C   -0.93503439111099      3.73914084673721     -0.67023416459838
  C   -2.33939667227248      3.27084937520078     -0.26740499954394
  N   -3.41235121685396      3.70522068880096     -1.06155930186706
  N   -2.00775639126934      4.77032973812249     -2.68994352291162
  C   -3.30209860867590      4.43811916174027     -2.25418243305681
  O   -2.51552261121759      2.55486348448373      0.69129394885350
  O   0.25393997314262      4.69048966934996     -2.53211722183967
  C   -1.87377203002185      5.54627709232402     -3.92623347289638
  H   -1.38761717603507      6.50218183750617     -3.71348069381466
  H   -1.27157232947118      4.99921679521355     -4.65520179573075
  H   -2.86985400666402      5.72022204890779     -4.33385517303174
  C   -4.77939957568989      3.36618714537690     -0.64589601842198
  H   -5.30634885887576      2.85570289128346     -1.45405247617810
  H   -4.71259838849559      2.70654200020356      0.21948920651612
  H   -5.32785703831515      4.27357862491600     -0.37461636785881
  H   -0.25977575053813      2.86179826720934     -0.66759062311116
  H   -0.55722661156520      4.40747932101860      0.10431390065110
  O   -4.28573279660400      4.73802598150606     -2.89428574160355
  C   -6.53079858699963      6.86520270745255      0.97707421488848
  N   -6.22163261810513      6.44013737470001     -0.26517058780575
  N   -7.76977447455289      7.16704062639762      1.40517871031299
  C   -8.72800080476992      7.00753530584555      0.47687277828427
  C   -7.27226058933503      6.29806326600694     -1.09458594751806
  N   -8.55086117591245      6.56984563357715     -0.78233191884679
  N   -7.01785067884521      5.84103209712303     -2.35731358787118
  N   -10.01091704640450      7.31238260463177      0.85129890796372
  N   -5.50464156593100      6.99432993437613      1.86433973396137
  H   -7.79467774132497      5.70649936593534     -2.98367920651714
  H   -6.09097951202388      5.52072851170602     -2.61663931918551
  H   -10.19249122099727      7.64027484520229      1.78591215163669
  H   -10.76200463185973      7.20676412216098      0.18903900363291
  H   -5.71383706621774      7.34673723380337      2.78363689035292
  H   -4.54468148796319      6.78545046809060      1.58304954256809
  C   2.61857486425191     -0.71465851941802     -0.58966083847413
  N   2.93447076827063      0.30196615299630     -1.41062885553032
  N   1.53739159257361     -0.78679438226649      0.20627909779260
  C   0.72653110970118      0.28286813918627      0.12975916425487
  C   2.04780222708441      1.31274833706402     -1.39996448789720
  N   0.92800125575187      1.35357724837887     -0.65762371341120
  N   2.31012364962649      2.38307475436482     -2.21181763293275
  N   -0.39295904778334      0.27684607445674      0.91735768803769
  N   3.48269610042640     -1.77876040565772     -0.55937788129639
  H   1.69263794340259      3.18513675568691     -2.24728214959565
  H   3.14596716329532      2.36741675388185     -2.77301801449533
  H   -0.55669628213546     -0.51672583998750      1.51514284776572
  H   -1.04068473160117      1.05532862709756      0.92268961941906
  H   3.28622427077909     -2.56294112681416      0.04082486979624
  H   4.30612821789910     -1.76839250872686     -1.13875923996926
