40
Coordinates from ORCA-job dimer_009967/dimer_009967
  C   -0.00443782450446      1.56912838976931     -0.94108683632512
  O   0.13725714017825      0.15603760084543     -0.83728576445796
  C   1.43278264053625     -0.28661108649386     -0.53066192379741
  C   2.09098199944761      0.28047576179076      0.73853480579168
  C   1.70288983183609     -1.74682729544801     -0.91679825955892
  C   0.57315212397322     -2.62925990717248     -1.45624059756371
  C   2.29119507239119     -0.61030119154716     -1.77359259211305
  O   1.77552832232900     -0.33213633437543     -3.04769949239298
  H   0.07560488823213      2.06094366184096      0.03555884579342
  H   0.74274874686934      2.01026798929313     -1.61341354063529
  H   -1.00205712311775      1.76923500955067     -1.34485997376320
  H   1.44094254890819      0.13002568067673      1.59599987431394
  H   3.02652308329695     -0.24291154193735      0.91834262383133
  H   2.29970808861911      1.34099958029799      0.64047458185886
  H   2.40958681154305     -2.25928261049590     -0.27888933817302
  H   -0.16564134394624     -2.04517044337642     -1.99360766874702
  H   0.97274783748059     -3.38482487202841     -2.12729162570577
  H   0.06831320884861     -3.13031345983273     -0.63507057741311
  H   3.36172622426773     -0.44041078607381     -1.72299854776680
  H   0.80668665392416     -0.22731051184208     -2.97464741230400
  C   6.00185982375321      1.14189675006698     -0.77121394203703
  O   6.82336539155885     -0.02052040346525     -0.73227020169390
  C   6.38059084897718     -1.08806950742348     -1.52631667683046
  C   6.21693939848941     -0.81928239974786     -3.03296510348386
  C   6.89478389717538     -2.45777659521924     -1.05585040076485
  C   7.89890369028664     -2.55248532803010      0.09747427735096
  C   5.42845912925882     -2.06556769931714     -0.80105708657794
  O   4.96956379909804     -1.75414044224888      0.48703365839745
  H   6.04639777849190      1.64442467164655     -1.74478981518716
  H   4.95253474692495      0.91260566890895     -0.54701585818741
  H   6.37936890603565      1.83309200056334     -0.01094029986551
  H   7.14319876511535     -0.42881311297777     -3.44601226435446
  H   5.97329565744060     -1.74456581511364     -3.54506303117274
  H   5.41888534990073     -0.10864734831462     -3.22718619872383
  H   7.04916478376282     -3.18576448812388     -1.83864773527833
  H   7.80503619626925     -1.71249218390112      0.77706579906100
  H   7.74880452307579     -3.47281798844298      0.65577124829788
  H   8.91247581783686     -2.54794632140879     -0.29349107095864
  H   4.66422165189358     -2.57236477357068     -1.38462441403167
  H   5.63702891354087     -1.20029231732145      0.93609253516898
