36
Coordinates from ORCA-job dimer_005303/dimer_005303
  C   0.69576988774020      3.27506482966535      1.02025812359811
  C   1.42943431508293      1.94721126796203      0.70141388144383
  C   2.08189350436657      1.35706111976959      1.98627825920216
  C   0.47148807729404      0.94716684097920      0.08085287130896
  C   -0.87271285539466      0.98581167779030     -0.12910709076693
  N   -1.28867518278827     -0.19497733865805     -0.72632829152473
  C   -0.21598277625602     -0.91996757881504     -0.86820862943042
  N   0.89475831607651     -0.26936800109110     -0.38889997468018
  H   1.38877378022441      3.99829172682109      1.43564837890221
  H   0.25418961842302      3.69261195943808      0.12188549999055
  H   -0.09450505916560      3.10286805451699      1.74235036008846
  H   2.21959545308399      2.15354554933776     -0.01667144058445
  H   1.31865864810156      1.14424042440301      2.72680178544539
  H   2.60928019433584      0.43623606687500      1.76211019561522
  H   2.78571871333629      2.06474249647601      2.41068584220119
  H   -1.56058043865221      1.77747858513799      0.10661270332802
  H   -0.16500279415541     -1.90946204162664     -1.30315099220900
  H   1.86929746822793     -0.60903723689161     -0.38055112237125
  C   7.30874837837760      1.27182588578741     -0.32700181251403
  C   7.29490933130917     -0.27023893572845     -0.16973123950838
  C   7.98427846549864     -0.69345661117985      1.16128417421515
  C   5.86987535138137     -0.78972572735067     -0.22312598854495
  C   4.67505993913043     -0.14987635083058     -0.28893651574936
  N   3.64398516879165     -1.08139603058856     -0.30093278414659
  C   4.20002817013788     -2.25324063299123     -0.24388614341007
  N   5.56954467803630     -2.13510564730614     -0.19339118235845
  H   8.33000521325999      1.63759875393643     -0.31916783341099
  H   6.84202582192109      1.56634365011088     -1.26116270556666
  H   6.77061424393384      1.73883750954690      0.49075045983819
  H   7.84936943530948     -0.70755918090427     -0.99809913884266
  H   7.45040458442427     -0.27562879502537      2.00856454940428
  H   8.00597280079691     -1.77233428126335      1.26815442962643
  H   9.00561459617274     -0.32718258202904      1.18335582905835
  H   4.48653259957331      0.90922389926027     -0.32774091053452
  H   3.69282472915627     -3.21257913200536     -0.23509453864310
  H   6.23998565490717     -2.89268418952907     -0.14899208646987
