36
Coordinates from ORCA-job dimer_005125/dimer_005125
  C   4.41315689250161      1.44584708526047      0.60292625533568
  N   5.03816453606083      0.18160908705336      0.23774745469121
  C   5.35854933978278     -0.25593686905241     -1.02757392959524
  N   5.89831807496556     -1.43534899729441     -0.99718337987869
  C   5.93992487158368     -1.81552818372375      0.33985296518680
  C   6.47215402811850     -3.16587376955454      0.77618914762200
  C   5.41397113684515     -0.82401430213999      1.10550582172446
  C   5.20418914957630     -0.72094075231964      2.59857664840991
  H   5.07224356985702      2.03889284529096      1.24290519506121
  H   4.20256229298019      2.01476329916185     -0.30357541289310
  H   3.47303459593630      1.27509897719938      1.13456649708008
  H   5.16720311410421      0.34791588040951     -1.90547402757396
  H   7.26581377171549     -3.48654568783657      0.10668205455743
  H   6.87229049342558     -3.12008948346665      1.78322123377580
  H   5.68650521969079     -3.91828185381468      0.75325620727159
  H   5.64766154439161      0.18602400871791      3.00290079195090
  H   4.14456807018600     -0.71487112010688      2.84852780766409
  H   5.66160720451541     -1.57419381880331      3.08973002704119
  C   8.54380318907079      0.53952972040675     -0.22060088169235
  N   9.06256336098661     -0.78886341965080      0.07036989976945
  C   9.33452183616504     -1.79114752961032     -0.83096912578399
  N   9.81376631906872     -2.84154180750686     -0.23761245762322
  C   9.86424373569873     -2.53683878734049      1.11763792751248
  C   10.35856875182998     -3.54149898315160      2.13824360528443
  C   9.40073692117910     -1.27562261495737      1.31505375118546
  C   9.22218866132602     -0.45261862177495      2.56952246346018
  H   9.30582823055533      1.30440628273005     -0.04577644186780
  H   8.23693946891218      0.57817286537972     -1.26615566420458
  H   7.67584242400969      0.75534378998965      0.40477096079026
  H   9.14251255517606     -1.67342363009336     -1.89072991644942
  H   11.35157123347716     -3.89639704345879      1.87348264291186
  H   10.40359765034081     -3.10015337146043      3.12748531342667
  H   9.69877691361373     -4.40548371409582      2.17686911275590
  H   9.79584993595589      0.47068755333643      2.52248058223038
  H   8.17656192683178     -0.19327946357487      2.71924172901165
  H   9.55885736756428     -1.01762089214740      3.43230019285113
