38
Coordinates from ORCA-job dimer_007534/dimer_007534
  C   -0.05722482364492      2.13371460130316      0.94128670276530
  C   0.08684157946769      0.67925021138397      0.47507965288333
  N   1.22490179878917      0.34598915361856     -0.40864830265235
  C   1.21179065765000     -0.22318041728168      0.95407985455946
  C   2.27744640941765      0.30217933770112      1.92434589668212
  C   0.90834369826560     -1.72584952520793      1.11795746678681
  C   2.15288674447371     -2.55546468848830      0.69898284593687
  O   2.76423514702798     -3.28579698821882      1.44119292566342
  H   0.91026949033892      2.62196826697608      0.97305674197287
  H   -0.69254438135001      2.68525848753184      0.25380665182492
  H   -0.50436733575868      2.17461588928199      1.93080644596095
  H   -0.85795635363234      0.18288503455537      0.28248362694434
  H   0.98277123327177     -0.33040290065804     -1.13463857649498
  H   2.55663941631323      1.31767472411626      1.66930143192769
  H   1.90074965323663      0.28535129602465      2.94291805958195
  H   3.16822709691698     -0.31530470498866      1.87845718548269
  H   0.65905413869218     -1.95169313566766      2.15156580641197
  H   0.06755434451072     -2.01450150077019      0.49175802309806
  H   2.46285620587688     -2.40811675780464     -0.35363345707577
  C   4.97291103900460     -0.22896068665282     -0.77154822924156
  C   5.45142793408445     -1.24248741610454      0.27666096708922
  N   6.90013011808999     -1.31917532441137      0.56180611791551
  C   6.00621879017110     -0.83217342400849      1.63157492545457
  C   6.15333449911432      0.64718011053361      2.01191617791659
  C   5.71423802201605     -1.75976473082314      2.82613885175254
  C   6.90308358317045     -1.74472924122396      3.82710701730055
  O   6.78052733935831     -1.57459713004792      5.01620387025284
  H   5.63686913079993      0.62700879023828     -0.80518974974667
  H   4.96680788789567     -0.68720795902934     -1.75627018815841
  H   3.96653582167743      0.11809588441648     -0.54678439333194
  H   4.90272811980850     -2.17713599578078      0.27269444024129
  H   7.22592704246499     -2.27575137031729      0.71092972558517
  H   6.43429781145884      1.23727243387532      1.14765008388490
  H   5.21997973235675      1.03083208311822      2.41222016811617
  H   6.92361575027652      0.76807350475299      2.76774201041470
  H   4.81323202637706     -1.44536555305652      3.34616217449274
  H   5.55793970888268     -2.78118198989406      2.48305217249379
  H   7.89561258412851     -1.89950154899165      3.36120862530810
