36
Coordinates from ORCA-job dimer_004916/dimer_004916
  C   1.94530867892871      1.66409077881780      2.36309935390500
  N   2.09679287451509      0.26158753670701      2.72963678521007
  C   2.86496652933772     -0.57063038494445      1.89930876878567
  C   3.68741240656577     -0.19702406309823      0.88431516419656
  N   4.27450603896196     -1.34464571368218      0.37674104897577
  C   3.83022287532532     -2.43233796184634      1.07022965864369
  C   4.30427888398877     -3.83568753759825      0.74505291659174
  C   2.95292658957026     -2.00138858578396      2.01511625662330
  H   1.46970966901794      1.80754139551824      1.38756156310185
  H   1.34676709410966      2.17633169352869      3.11599740073666
  H   2.92373663195836      2.14519622310315      2.33082784616290
  H   1.28714444189038     -0.17492007657849      3.13985049151053
  H   3.91193018268840      0.77358477555617      0.48373477335908
  H   5.02060110294050     -1.36121344441379     -0.30580484800959
  H   5.39079349582356     -3.88794333796115      0.76936894297053
  H   3.90655660878625     -4.53587836609183      1.47194172865418
  H   3.96991907634407     -4.14141329212106     -0.24450783808529
  H   2.41703709053108     -2.61247696460239      2.71333331796379
  C   8.70895917251072      0.62211977916982     -0.66906466899582
  N   8.49650066711863     -0.74707735246889     -0.21684394223452
  C   7.70843312980515     -0.96271098038317      0.92533793509085
  C   6.91656101252330     -0.06438041429467      1.56733359721451
  N   6.29185081741282     -0.72734127844437      2.61111656024645
  C   6.68227930345933     -2.03456087956709      2.62332120023485
  C   6.15743004316096     -3.01564401068187      3.65375076625028
  C   7.56198596127110     -2.22212206249849      1.60396783383062
  H   9.20440575065775      1.25223120770827      0.07654687702909
  H   9.31603176338236      0.61838364107677     -1.57402301630530
  H   7.75098004256399      1.08375320930213     -0.91195951161187
  H   9.28205544975991     -1.36935832340127     -0.31697446644543
  H   6.73706515483303      0.97658138122320      1.37463265056605
  H   5.55676098796649     -0.33967570273864      3.18740760069627
  H   5.06946768637850     -3.03096701110073      3.64828286713868
  H   6.51991724035401     -4.01327334900274      3.42978870997167
  H   6.48998609347356     -2.74626146082098      4.65440636852584
  H   8.06271845208227     -3.13587306758577      1.35408930750072
