38
Coordinates from ORCA-job dimer_006911/dimer_006911
  C   5.45456140331222      1.90221588187761      2.02802155351026
  C   5.60577956899935      0.40585240733508      2.33700368976540
  C   4.40574470075419     -0.44794239275529      1.89050371139093
  N   6.96554019004206     -0.15221564246771      2.20261411677872
  C   6.38270207463217     -0.06851719826608      3.55390069580537
  C   7.05319608095213      0.89775395601086      4.54751297382722
  C   8.22667269592299      0.24918794000369      5.19443803152515
  C   9.15278028053011     -0.27475253603434      5.68329981439442
  H   6.37393906132053      2.43676296144911      2.23596006890362
  H   5.21394761128636      2.03957149977980      0.97810772487412
  H   4.65393668042951      2.33338795889389      2.62182360779046
  H   4.25721027199153     -0.35627262121023      0.81829450223071
  H   4.55806040300578     -1.49499570348594      2.13075915085264
  H   3.50061017977676     -0.11154973264186      2.38789484992749
  H   6.98635134181931     -1.10165410404525      1.82841016696522
  H   6.03338615068087     -0.98390482070577      4.01773422950901
  H   7.38443007349160      1.79438887071240      4.02677309779040
  H   6.33452591436612      1.20335911844532      5.30931628374878
  H   10.00423035973942     -0.75420944037544      6.11782930773290
  C   9.26662986657113      1.45962634593568      0.09417978983141
  C   9.44409505799707     -0.03594577507549     -0.19958508719501
  C   8.37513717449093     -0.61607941917238     -1.14135125232986
  N   10.83313430123103     -0.53211056700141     -0.29431437493801
  C   10.01737227484333     -0.95398556325701      0.86247349044154
  C   10.41304257857137     -0.41685759496567      2.25054948295409
  C   11.14316211406522     -1.43967340148292      3.04908652765391
  C   11.70993868311690     -2.25212218322739      3.67407060970948
  H   10.13328760776400      1.85463075030256      0.61061424803290
  H   9.13958634435275      2.01155308793661     -0.83147685387891
  H   8.38656433055046      1.60377847226740      0.71546270895020
  H   8.41911822491446     -0.12553623590627     -2.10944499348974
  H   8.51333198644571     -1.68199059486664     -1.28763374208774
  H   7.38750845970234     -0.45000097073760     -0.72174588903200
  H   10.95350460687341     -1.26994168630643     -0.99018348802802
  H   9.63687578358796     -1.96784421780028      0.88085068092159
  H   11.04352005012186      0.46296268140508      2.13182277249334
  H   9.51261922145912     -0.11305966790704      2.78958983346802
  H   12.22904022928709     -2.99106385366065      4.24316889619979
