36
Coordinates from ORCA-job dimer_006120/dimer_006120
  C   0.51648247222930      1.32858786087757     -0.38156397503958
  C   1.02639006291078     -0.01953052872964      0.16772086825554
  C   2.45042671103704     -0.47264319150867     -0.29837260601241
  O   3.02964842145621     -0.70480436173740     -1.31156390777423
  O   2.93415627282800     -0.52168583968603      1.00561613454808
  C   1.67372781782951     -0.08196375698129      1.60428876232070
  C   1.84761780658925      1.26598256347664      2.34362595516869
  C   1.08450345018172     -1.17482848957493      2.52999647968020
  H   1.27444578004735      2.10127091613052     -0.31049092257217
  H   0.24095750779236      1.21643675274055     -1.42740534309733
  H   -0.36094913274167      1.65098205287252      0.17228105179644
  H   0.28206155399208     -0.79727490925310      0.01259194000100
  H   2.34672259567117      1.99530856916995      1.71491528516683
  H   0.87684790610150      1.65760930884812      2.63264397088428
  H   2.44246721294891      1.11783181434295      3.24011149303694
  H   1.71912294955738     -1.30786007710808      3.40133743613119
  H   0.09365360959198     -0.87953014474832      2.86323023635918
  H   1.01075745823563     -2.12195238577640      2.00451850031012
  C   5.63825674936254      1.47318850811353      0.16903734663242
  C   6.13686080290776      0.08899997206842     -0.29320054194390
  C   7.67329111603295     -0.03764248310654     -0.56969295352457
  O   8.49853870824409      0.45546400419058     -1.27237300396398
  O   7.83354827988805     -1.02533744570346      0.39631433621484
  C   6.42086192351421     -1.02624395721786      0.78199713990524
  C   6.23583118730468     -0.61904643865965      2.26229844608671
  C   5.76126187303159     -2.39379449210485      0.47936520328963
  H   6.29818615108306      1.90758142890696      0.91183851842812
  H   5.58975566767984      2.14801803075446     -0.68122602279365
  H   4.64601490565803      1.38040353641971      0.59893628057565
  H   5.52928285952453     -0.27386751392531     -1.12034589251572
  H   6.78434221293658      0.28820850528859      2.48885150651936
  H   5.17978196527367     -0.45732052656069      2.45884931236001
  H   6.59669515149964     -1.41225036353984      2.90936439404288
  H   6.19735554967384     -3.16374027292007      1.10826465969303
  H   4.69610177039619     -2.33186207211831      0.68252202174083
  H   5.90668031073006     -2.66620348824062     -0.56101465591042
