36
Coordinates from ORCA-job dimer_006454/dimer_006454
  C   1.52099121994888      0.62018110440804      0.92054202950141
  C   1.69977198352238     -0.72814777966480      0.17732157296093
  C   1.17357895395739     -0.79808537591611     -1.29751797996726
  C   2.66203130610962     -1.07456261400176     -1.67591060837685
  C   3.36078975325783     -0.05418382014821     -2.60899279577130
  O   3.06137185581328     -0.94130050719004     -0.28635926311270
  C   2.92017637517730     -2.53908677139183     -2.16629317006295
  O   2.02658607722655     -3.29765165861169     -2.45234057456226
  H   1.86073715251923      1.44331030191714      0.30061354624962
  H   0.47230312578587      0.77398608167300      1.15976387036656
  H   2.09052692540743      0.62040572027483      1.84547292942826
  H   1.35934344666077     -1.55662007865529      0.80762643675218
  H   0.49526166912068     -1.61575581665537     -1.52073030205850
  H   0.77227127743398      0.13215458229672     -1.68157372507489
  H   3.24805453542494      0.94949322544930     -2.21207350194323
  H   4.41950732446089     -0.28366962681113     -2.69420680103393
  H   2.91374497619964     -0.09194378729940     -3.59864783047164
  H   3.99194221564760     -2.81802476885291     -2.21238534359552
  C   6.85167862194079      2.51597125847134      2.25303275555838
  C   6.22131035423025      1.17713461660016      1.79252126559974
  C   5.48685040313608      1.18258558529785      0.40818838235667
  C   6.59417944492306      0.15934118429088     -0.02968586906926
  C   7.52874063058285      0.59641920183553     -1.18054787332681
  O   7.20338529841738      0.23761954953604      1.28027778642294
  C   6.02654739937968     -1.27493623518751     -0.27997523916695
  O   6.00525718902813     -1.79572176245790     -1.36828707442148
  H   7.44176083806546      2.95026956453861      1.45271735728766
  H   6.07195774801534      3.21787729305307      2.53502705080540
  H   7.49815600927842      2.34998232873436      3.11018327853832
  H   5.63230489473221      0.73756235332314      2.60419144759103
  H   4.47547320079929      0.78743132860774      0.40648841236278
  H   5.51830949317574      2.12621545960602     -0.12325329590033
  H   7.90638789952109      1.59665343239995     -0.99591817413313
  H   8.36907943812150     -0.08685320212965     -1.26238365986748
  H   6.98362269932799      0.58817365194490     -2.11995681284086
  H   5.64087496664756     -1.77026281528504      0.63237215797566
