44
Coordinates from ORCA-job dimer_009680/dimer_009680
  C   -1.64365322457170      1.79046512774688     -1.46841592519671
  C   -1.61886454974368      0.88665377260176     -0.20570716391566
  C   -1.23957228594386     -0.55162779529159     -0.57224694658054
  C   0.22459234787066     -0.95750595103230     -0.68014888160842
  C   -0.63695038260153     -1.50869747103243      0.45136115914467
  C   -0.37824976051142     -1.05620734754506      1.89138334947939
  C   -1.08141375710847     -2.97758185761565      0.34482697286296
  O   -0.03863071954787     -3.81103891188922      0.85940691216675
  H   -1.90625937433892      2.81067872749467     -1.20789288823505
  H   -0.66888447995432      1.79599655051336     -1.94494489673720
  H   -2.36910315791054      1.42308491872369     -2.18636938429765
  H   -0.90873091905939      1.28657926348201      0.50820166955272
  H   -2.59443030732884      0.89555828205268      0.27215685687270
  H   -1.90762548402354     -0.99987710183544     -1.29088430077741
  H   0.53339099680371     -1.62508264169922     -1.47046322751778
  H   0.96484178019623     -0.21696159535317     -0.42350413780370
  H   0.07519769351535     -0.07309385073384      1.92006530238245
  H   -1.30571506838185     -1.02383691722789      2.45505944308976
  H   0.29396436641985     -1.75625075167908      2.37895632994250
  H   -2.00746838615742     -3.11645060979489      0.91734478619390
  H   -1.29779602793700     -3.21936251796461     -0.70273748150327
  H   -0.33391518530182     -4.74053098640404      0.87881702559911
  C   6.84454874731310      1.18320148353496      0.67043009679314
  C   6.53866663136619     -0.33508037927495      0.78837661708664
  C   5.04397510079353     -0.61048527700588      0.59641187146712
  C   4.46702023926486     -0.77484067137979     -0.80573818562332
  C   4.52578598478213     -1.96897572968797      0.13926684494986
  C   5.49136901315567     -3.11853206989761     -0.16015429327119
  C   3.19157285236877     -2.43930841278636      0.74988787880564
  O   2.54415779609015     -3.29975146797437     -0.17722642825193
  H   7.90435174533299      1.37640830201060      0.80028501365954
  H   6.54398753372824      1.55130650380262     -0.30478079447741
  H   6.30035270024779      1.74125674813700      1.42465304944482
  H   7.11281280741847     -0.87553390241174      0.04540035533592
  H   6.85333553453580     -0.69812443416198      1.76260930652068
  H   4.41956726697173     -0.08908691329637      1.30423262959428
  H   3.50382201323217     -0.34449352887643     -1.02741990337690
  H   5.15610048565118     -0.75646081677292     -1.63440467875691
  H   6.35211805549414     -2.78076159027249     -0.72345894057951
  H   5.83887526517780     -3.57499207843674      0.76139965804210
  H   4.97303802367884     -3.87454895123060     -0.74319786066306
  H   3.39779924412825     -2.95151367878931      1.69890221712418
  H   2.58036688041118     -1.56157728651019      0.98560207779576
  H   1.65149218647248     -3.52134733123561      0.16486390526698
