44
Coordinates from ORCA-job dimer_007547/dimer_007547
  C   3.92499159355767      1.70529485427302      1.76913907043538
  C   3.07831086439545      0.56034622759090      1.15292125773772
  C   3.15817486583081     -0.73744630638967      2.00325176611448
  C   2.31837571444592     -1.87734166928911      1.39114197101610
  O   0.96107590591989     -1.56833605338345      1.18310344272841
  C   2.97986707278111     -2.85474685602224      0.40781264224016
  C   2.57085988236727     -3.32523244766666      1.80455924666506
  C   3.62877535592770     -3.69262881311473      2.85036431476113
  H   4.97159203665125      1.42722874912158      1.81627345455417
  H   3.83941380306921      2.61027623906642      1.17656911691198
  H   3.58807163029962      1.92566127880355      2.77653753658069
  H   2.04523185932001      0.88420661580129      1.08553012282370
  H   3.41892239395238      0.35290970502672      0.14351218668621
  H   4.19066885557650     -1.05749226509310      2.08190490971588
  H   2.79893544233502     -0.53293821801288      3.00734251770873
  H   0.87935426623910     -0.96262346790200      0.42332948903289
  H   2.39727259277616     -3.19973593890623     -0.43215351977878
  H   4.03608021711843     -2.73563457129700      0.21401597762257
  H   1.67330303237370     -3.92595462268056      1.84358551558974
  H   4.56820057448930     -3.19097663988725      2.64537726906273
  H   3.29419096816549     -3.42195024876228      3.84755051503281
  H   3.81315255541038     -4.76246838633074      2.83099726267434
  C   7.25761186373747      0.55152101163245     -1.93869086087946
  C   7.42396442134448     -0.71449248802139     -1.05743111406253
  C   6.88173552483645     -0.47758269965462      0.37844509889415
  C   7.10280829542277     -1.70256437962893      1.28710802662978
  O   6.44433894758425     -2.87129222504060      0.86470641518363
  C   8.45232544731922     -1.86721732892816      2.00120552705981
  C   7.19087823282992     -1.54749741984204      2.80505228829178
  C   7.01412705894202     -0.19841071712885      3.50930965874968
  H   7.81861882014941      1.38208959864419     -1.52342185532622
  H   7.61405268810034      0.36965373980711     -2.94747058941148
  H   6.21392887076022      0.84303953239017     -1.99236159041299
  H   6.89230377707073     -1.54140960779300     -1.51622294364706
  H   8.47246804463233     -0.99059967696430     -1.00583431842011
  H   7.37560259412544      0.38546128762262      0.80717724038296
  H   5.81996212856060     -0.25805269949844      0.33213887112559
  H   6.89724528733886     -3.23874425986337      0.08311336189822
  H   8.86517341438333     -2.86084858372195      2.08612030020543
  H   9.18740213992354     -1.08797930774063      1.87450225112239
  H   6.77941254508773     -2.38550621672857      3.35026027794435
  H   7.49484497676200      0.60331474449013      2.96137199180869
  H   5.96009168005891      0.04165457176341      3.61713627859767
  H   7.45591875802603     -0.23840804074053      4.50114161834931
