36
Coordinates from ORCA-job dimer_005313/dimer_005313
  C   0.46169583406382      0.56980910592630     -1.31811203318521
  N   -0.40557500566659     -0.50213160134858     -0.82617259801741
  C   -0.62806289153013     -1.60853565566139     -1.75310340004970
  C   -0.33059180114227     -0.84915199896565      0.52892369019539
  C   -0.30372274628518     -2.06811645447420      1.13621245238905
  C   -0.32073904706195     -1.83508200797993      2.55472433660229
  C   -0.34738974301587     -0.49846317797290      2.75355152757668
  N   -0.35439175681881      0.11453108334825      1.51101525992145
  H   0.10331343956483      0.89583737092522     -2.29440725659200
  H   0.42781456031076      1.42771280834523     -0.65008571320106
  H   1.50416870612054      0.25439111627565     -1.42384588433039
  H   0.25644356268164     -2.24077332465731     -1.87634618011474
  H   -1.44964467502814     -2.22480645747770     -1.38933268391439
  H   -0.90383449925897     -1.20798104773992     -2.72791656960816
  H   -0.27503358737442     -3.01973753836053      0.64603333967225
  H   -0.30369611838588     -2.59082159143578      3.31898916231348
  H   -0.35541594315322      0.08067299063226      3.66201879557708
  H   -0.44168209832564      1.10612560268815      1.34610399847728
  C   3.32076908046852     -0.28236802823650      1.63656642773634
  N   3.62884359020377     -1.56283592467773      0.99708493681820
  C   3.29852304692484     -2.75258121536802      1.77709082426731
  C   3.44684403890058     -1.67400104103845     -0.38754994251046
  C   2.89067324347558     -2.66678061064200     -1.13614904973835
  C   3.05359612406103     -2.29849826786544     -2.51619798681369
  C   3.68726964376348     -1.10518039616554     -2.55329521479179
  N   3.93293076935267     -0.71526201423044     -1.24671822514707
  H   3.75232580311280     -0.27308778767493      2.63729934637234
  H   3.76179451354469      0.54090197743789      1.07871457227801
  H   2.24501600108130     -0.10306676911590      1.72590683119593
  H   2.22077616095093     -2.93091088648222      1.83933794494223
  H   3.77104430505235     -3.62426297317249      1.32535522517389
  H   3.68734492142061     -2.63614339611168      2.78799170989443
  H   2.42059563410367     -3.55378025011729     -0.76336713346716
  H   2.72006690501115     -2.86732542748229     -3.36514987391322
  H   3.98349915697855     -0.48793528421016     -3.38515755757388
  H   4.45309883189832      0.10250277608647     -0.96604834143500
