48
Coordinates from ORCA-job dimer_006221/dimer_006221
  C   -0.97978739374608     -0.33217354407558      0.73029411114056
  C   0.45473791611998     -0.75377539554621      1.13482470150539
  C   0.94320450217834     -2.04648541984424      0.39652010914953
  C   2.28611255432486     -1.67014394890403     -0.29054835413379
  C   2.81755651184764     -0.45005801051022      0.50753645986255
  C   3.46394363823055     -0.92007878433628      1.83605990638098
  C   3.83353670285874      0.38441756981199     -0.30834082429568
  C   1.51178043735452      0.33389490627700      0.79450444146712
  H   -1.03523905761492     -0.15966098129668     -0.33865599752990
  H   -1.69562132129066     -1.10546741084436      0.98809548263488
  H   -1.26823416139374      0.58239884958282      1.23783279898082
  H   0.46618527958255     -0.93282789572780      2.20293945596164
  H   1.08606449743399     -2.85439397663562      1.10362904310938
  H   0.21372600958860     -2.38290028676477     -0.32932702377018
  H   2.99181316569832     -2.49110978459167     -0.30295622358573
  H   2.10657616588346     -1.37424038421096     -1.31703547493382
  H   4.33599051050765     -1.53178490051672      1.63872982281928
  H   3.77392863543412     -0.06724713447530      2.42874308064547
  H   2.76631693218236     -1.50572680027798      2.42130109270888
  H   3.38140276549584      0.73964321142294     -1.22704442631709
  H   4.16847412098276      1.24342298838878      0.26223754364473
  H   4.70096624929287     -0.21280006888732     -0.56387894076688
  H   1.21193682818369      0.86856980898796     -0.09798354735942
  H   1.62925781854449      1.05736919930776      1.59104539539238
  C   8.58243232178138      1.45443273279430      0.09680108800180
  C   7.99222408513162      0.08741934543724     -0.32907907665536
  C   9.04381288274691     -0.84851409156843     -1.01669960639458
  C   9.01268019712056     -2.18725476284035     -0.22559768265632
  C   7.62279711601529     -2.21243859217973      0.46443296148231
  C   6.53060417916817     -2.62658830373747     -0.55502150307859
  C   7.58650269290384     -3.16626018373432      1.68222294996562
  C   7.45225828554321     -0.72861294278001      0.87741657653130
  H   9.41231139636515      1.31162274733519      0.77971342503776
  H   8.94218753667710      2.00463154255064     -0.76616817320028
  H   7.83057500409215      2.05670583561788      0.59598021330118
  H   7.17882981286579      0.27166189887785     -1.02014109294507
  H   8.78429789198960     -1.00945241164981     -2.05586093307878
  H   10.03233777786585     -0.40730520329671     -0.99935655955357
  H   9.17166538170955     -3.04983585583752     -0.86032767127773
  H   9.78706659039253     -2.18730921151227      0.53188182757566
  H   6.69675792485860     -3.64383865467979     -0.89012771910837
  H   5.54767681188110     -2.57539427503548     -0.10239465259482
  H   6.54024626391189     -1.97894046896388     -1.42251585512430
  H   8.34608229908543     -2.89085907642450      2.40468071710405
  H   6.61910948132423     -3.12341470217976      2.17036490565965
  H   7.76495875203383     -4.18960149964016      1.37124872500356
  H   8.05859504127462     -0.53156971965823      1.75252339160139
  H   6.42869096558026     -0.47633795322793      1.12039711169228
