42
Coordinates from ORCA-job dimer_006544/dimer_006544
  C   0.07807458685664      0.57133399222269      0.69925358281183
  C   0.78807903290985     -0.51522367250459     -0.16880964920114
  C   1.90287136709378     -1.22700456280855      0.65968170230964
  O   -0.16964197528568     -1.46703900588878     -0.63351688348669
  C   1.39333947812074      0.11968384008943     -1.44944841515793
  C   2.24224149049826      1.38102194647118     -1.25204698033331
  C   1.72252802755377     -0.82592820314736     -2.58493954823558
  N   0.56941485710048      0.10118420093851     -2.67197779417281
  H   0.80118637576186      1.26901613309389      1.10411651511219
  H   -0.64052755534806      1.11909668129390      0.09865307364395
  H   -0.44288672775248      0.10529974425684      1.52880399940619
  H   1.48792718356954     -1.65636491274498      1.56522479504881
  H   2.35054547744660     -2.01960836332156      0.06947779077127
  H   2.67954904984102     -0.52356834608972      0.94008330858803
  H   -0.55834910309837     -1.93607434044621      0.12570610202486
  H   3.05373291957840      1.20805141523475     -0.55217181345105
  H   2.66510205528082      1.67866818458592     -2.20553471330538
  H   1.63351041905252      2.20036538952973     -0.88571554410825
  H   2.56398338460949     -0.60597683527343     -3.23133849980573
  H   1.53639546763217     -1.88315584015674     -2.43538138910480
  H   -0.31102310457633     -0.39624645686162     -2.50967639824896
  C   6.48562457654364      1.62552175864152     -0.91191138472854
  C   6.31946950332073      0.37254019617636      0.00523976053524
  C   7.48687218402164      0.29398075919441      1.03743028894410
  O   5.06350614470854      0.43695799507233      0.68366748190178
  C   6.27220053978948     -0.92067391297314     -0.84923758466305
  C   7.45930566109012     -1.15907885680139     -1.78969406018736
  C   5.55936982716729     -2.11462773808907     -0.24963010535475
  N   4.96238459576770     -1.34856412880157     -1.36839185493484
  H   7.45463526278192      1.62032995593931     -1.39650062904719
  H   5.71242698713154      1.63439668475770     -1.67345513659832
  H   6.40740502793384      2.53375519984543     -0.32369510350066
  H   7.49180979038769      1.17416465858589      1.67197024494711
  H   7.37269345803644     -0.58742382585428      1.65957487932240
  H   8.44171181181620      0.24064856059352      0.52772790269309
  H   5.05679061333515      1.21109584716563      1.27406563482292
  H   8.39220762809851     -1.21861891524846     -1.23948586214793
  H   7.31043666587171     -2.09434155953912     -2.31914120278023
  H   7.53735833480542     -0.36630955272870     -2.52582095023601
  H   5.90587354263202     -3.11184253224309     -0.49186791790722
  H   5.13632587811438     -2.01028611166946      0.74245392207138
  H   4.21101483080033     -0.73722272249709     -1.04014233025698
