36
Coordinates from ORCA-job dimer_007806/dimer_007806
  C   0.79327300904145      0.49404300239721      1.24021898665870
  N   1.71619872439685     -0.41769968338220      0.56209254850038
  C   2.85105820963721      0.22943514189197     -0.09176594262802
  C   3.49751510539206     -0.80870605421850     -1.05476463560620
  O   3.85621105250713     -2.01568414639695     -0.39378153649888
  C   3.12099571909120     -2.49015896487038      0.66366590783668
  N   3.28758691528743     -3.65759213791516      1.09618292022739
  C   2.14274642671006     -1.53787859259607      1.39920477330255
  H   1.24616038963177      1.01214891426082      2.09152551904809
  H   0.43687666760108      1.24301674525717      0.53392145878613
  H   -0.06829301645476     -0.06622661621362      1.60292990793922
  H   2.49789024493857      1.07438393195869     -0.68073096061797
  H   3.59345332849294      0.59958420901511      0.62133556615645
  H   2.78701766660863     -1.02832181257242     -1.86145657167656
  H   4.41999527488688     -0.40988297308673     -1.49460687602400
  H   3.98884435863609     -4.18338698531340      0.56063050330169
  H   2.64602021426859     -1.19968909222131      2.31422740793230
  H   1.27668211673109     -2.12789635059451      1.70202587895234
  C   7.29533314253878      0.98320407149663     -1.70060475820781
  N   6.88491305452261     -0.19756467856048     -0.93776373178054
  C   7.71175090742354     -1.38345295535675     -1.15950820712131
  C   7.00349389106252     -2.60789778541352     -0.50476184659969
  O   6.73647877337186     -2.39380279240356      0.87835650330711
  C   6.19351511361360     -1.18480489942715      1.25067880314584
  N   5.42661107947978     -1.07111627719350      2.23748931856584
  C   6.67690689014011      0.07241024642759      0.48554384896727
  H   8.27649446551736      1.36864117665135     -1.40619938546823
  H   7.33039737986627      0.73689906425258     -2.76142746970627
  H   6.56335025889697      1.77839261743608     -1.56094755643948
  H   7.80170491986502     -1.56470914804894     -2.22987156644211
  H   8.72197260118057     -1.27468729334033     -0.75343810489562
  H   6.06496388900909     -2.80527085301443     -1.03893492423015
  H   7.63934022520205     -3.49674739691826     -0.56947209848013
  H   5.22217638268962     -1.97425748802375      2.68479072385125
  H   7.59304534999226      0.42497161685318      0.97622474834965
  H   5.92439183722199      0.84964586218382      0.61146826959403
