38
Coordinates from ORCA-job dimer_002800/dimer_002800
  C   -0.17328017945517      0.87601286289337     -0.66550244022504
  C   0.70608396852557     -0.36881304294628     -0.95942938377397
  C   2.20436845594416     -0.01380690975019     -0.88663570825089
  C   2.79379320953360      0.24502763628092      0.54172825472312
  O   3.74346683263563     -0.83545206385244      0.37036167378368
  C   3.25724286168848     -1.18031067325442     -0.95350187546732
  C   2.73114408540451     -2.63467510416490     -1.04085589985164
  H   0.04224370335520      1.27135627507180      0.32157487180791
  H   0.01642731440351      1.65859092694585     -1.39261706028069
  H   -1.22710723717985      0.61997295879020     -0.70662912321875
  H   0.47762715519313     -1.15089134202115     -0.24437356571832
  H   0.47460800698475     -0.75613848492475     -1.94708981182007
  H   2.42553487830843      0.78408574650603     -1.58627985656287
  H   3.27840502956361      1.21559702176131      0.68981859042187
  H   2.09733014968159      0.06549676282711      1.36699500814294
  H   4.02745845928407     -1.02137597755250     -1.71402082716039
  H   2.02303863856206     -2.83591615758914     -0.24505951957258
  H   2.24276372889879     -2.80093684184716     -1.99635915776875
  H   3.55800013049889     -3.33250942947127     -0.94783824527677
  C   7.48572376618822      1.44128263370528     -0.61277825116032
  C   7.01242029900169      0.01354835365629     -0.22979060504161
  C   7.02411284553564     -0.92053800872141     -1.45543111182131
  C   8.42285995570782     -1.42260936921045     -1.95169815001738
  O   8.02701480675364     -2.80115107437466     -1.74704623289211
  C   6.71543967405610     -2.44563244637084     -1.23149449977466
  C   6.48201248588920     -2.92708677753804      0.22211091699851
  H   8.48992107325777      1.41523434345773     -1.02253719626110
  H   6.82806632812276      1.87520181919913     -1.35821033146433
  H   7.49054007911593      2.09048569095902      0.25665441971962
  H   7.65893198491999     -0.38772351360956      0.54181503236795
  H   6.00513159957154      0.04849850727923      0.17868797085856
  H   6.42717973327080     -0.48920100171973     -2.24994731011860
  H   8.66843363945574     -1.20200941928989     -2.99531095262232
  H   9.26630689611837     -1.12840421754500     -1.31912763796418
  H   5.91939673618981     -2.82536136796399     -1.87877465814522
  H   7.32375120794865     -2.66025690888493      0.85048762411171
  H   5.58224137554630     -2.46808822566904      0.62609459972210
  H   6.36857090551863     -4.00640768706145      0.24126630457328
