36
Coordinates from ORCA-job dimer_006122/dimer_006122
  C   1.26396125257673      2.08192117667342      0.56837713068271
  C   0.64551210567841      0.86627430855295     -0.15798486664131
  C   -0.82125915225805      1.14082099771156     -0.57207228763466
  C   1.51439921018846      0.24678013566025     -1.30675041806135
  C   1.44998037218637     -1.18604802261608     -0.63599086809916
  O   2.63058326100193     -1.92518694378078     -0.47238817231293
  C   0.79275695582387     -0.48222688659891      0.62407932669525
  O   0.56467344688999     -0.81477490369693      1.74735671919016
  H   2.28458889813412      1.87011153448656      0.87254823133136
  H   1.26756292193208      2.94801354430756     -0.08563131196177
  H   0.68448814160711      2.32130300812881      1.45475354775078
  H   -0.86287831602486      1.98484764643696     -1.25320970551235
  H   -1.25482323785669      0.27868099103097     -1.06788365605629
  H   -1.42161655095919      1.37376904722705      0.30201964025269
  H   1.08898823406608      0.31076284396779     -2.30005053349296
  H   2.52221211085650      0.64226804112868     -1.32472459096468
  H   0.71647315074544     -1.82918561624598     -1.13551098203972
  H   3.27118043963748     -1.38862968402479      0.03908317754466
  C   5.25490490208219     -0.80260304383119     -2.38593331319985
  C   6.10646762584932     -0.83644673355368     -1.09621710419344
  C   6.45612642504750     -2.29241324245086     -0.69700250375698
  C   7.33914480647240      0.13457074734956     -1.05946603256120
  C   6.87158460003614      0.72566003862995      0.33152215910643
  O   6.88796313564428      2.11043443820856      0.56312555298236
  C   5.50196000145621     -0.03668087287162      0.10573574081468
  O   4.41294020918626      0.02542307613749      0.59813440559062
  H   4.99002650787398      0.21436423522861     -2.65411255209255
  H   5.81476521908615     -1.23915407527596     -3.20724854767379
  H   4.34084401828565     -1.37571790733186     -2.24689644458584
  H   7.04053301366570     -2.75665159339916     -1.48541194606673
  H   7.03413225669788     -2.32139728332684      0.22093383970299
  H   5.54760135289610     -2.87223203391726     -0.55614016581366
  H   8.31281338341492     -0.33984136745072     -1.05579651885871
  H   7.30889673123830      0.87453490177272     -1.85132232769727
  H   7.41429566736112      0.25354210976961      1.16019750018981
  H   6.38788790547924      2.57883478396351     -0.13198003555708
