40
Coordinates from ORCA-job dimer_011476/dimer_011476
  C   -1.13775431227485      0.25151179890718     -1.30618788242154
  O   -1.31314605315977     -0.91359201712683     -0.50717716384931
  C   -2.58995471564971     -1.02829593598891      0.09591574090368
  C   -2.60441431356694     -2.35209973356328      0.94602311285717
  C   -2.71356530474286     -1.85540949082297      2.41580336553616
  C   -2.40334287924557     -0.32614124864227      2.30488665608679
  C   -0.88867117067642     -0.01880187841945      2.50670030330942
  O   -2.84635818840577      0.03374201375386      0.99861316811274
  H   -0.10729666860930      0.24080062056023     -1.68232424094387
  H   -1.82766304835832      0.26222156890019     -2.15915144453405
  H   -1.29472482866348      1.16914190540408     -0.72618111664390
  H   -3.38167728421657     -1.00383840906564     -0.67302635893034
  H   -3.43819138764210     -2.98694741403893      0.66884335487423
  H   -1.68342796692290     -2.89751153052423      0.76640305296124
  H   -3.71689049605472     -2.00727375231008      2.79802714103855
  H   -2.01834117977046     -2.36223302290798      3.07432017692044
  H   -2.99001475305999      0.25394073819560      3.02157103977241
  H   -0.28560857567215     -0.62122540885338      1.83512396655377
  H   -0.69222400828129      1.02894504509363      2.30482977069230
  H   -0.59848036785937     -0.23672687260016      3.52941365975578
  C   2.28949832730110      1.27826054674766      0.66193951643975
  O   3.33682996392612      0.42514158415288      0.21599834048980
  C   3.43372583359863      0.30474953649141     -1.19370070991324
  C   4.56971160078092     -0.73554343163295     -1.50969319915762
  C   3.80953452065435     -1.95466313872550     -2.10707404179524
  C   2.30714999578016     -1.63579740316808     -1.80494327894863
  C   1.82291973976481     -2.27007841894460     -0.46683328142212
  O   2.24684810611329     -0.21061528326705     -1.76843562741138
  H   2.33647070574621      1.31229456482391      1.75456558057006
  H   2.40363529060009      2.29884600789579      0.27502401366025
  H   1.30189460453540      0.90402884204408      0.36511742605956
  H   3.61679001139405      1.29334803232644     -1.64967410381836
  H   5.29069038840910     -0.32606813237002     -2.20800368080356
  H   5.08710187414929     -0.98576404694613     -0.58900156659193
  H   3.97229784869787     -2.02028465712029     -3.17704950623617
  H   4.11943904081525     -2.89094594560113     -1.65879253328446
  H   1.65701657840642     -1.96884363241705     -2.61779431164865
  H   2.47052442396120     -1.97028186047786      0.35023542217354
  H   0.80707988732757     -1.94608361895061     -0.25317671130641
  H   1.83604555087064     -3.35180293581145     -0.54714565510687
