44
Coordinates from ORCA-job dimer_006846/dimer_006846
  C   -0.44224180205220      0.60379114732937      0.85760110028863
  C   0.58023571564116     -0.45547960766035      0.37224174502011
  C   -0.00761859705269     -1.87351658890819      0.59398845542459
  C   0.89279221580140     -0.25962787562516     -1.13279191667311
  C   1.46856248938337      1.14694071328155     -1.42370824372506
  C   2.49306142824956      1.56778092648392     -0.37487306975140
  C   2.68191870713613      0.93123391595027      0.75653031343760
  C   1.90247847862770     -0.31331643997991      1.16819745254611
  H   -0.02303892475221      1.60050485479537      0.80525286968048
  H   -1.33785985336299      0.57273622143728      0.24826642637671
  H   -0.72288542656825      0.40854325297715      1.88585661897959
  H   -0.94608140976591     -1.98261593065150      0.06253297305292
  H   0.67912931319699     -2.63097826265186      0.23417045318831
  H   -0.18959332662351     -2.04943387367775      1.64806500188038
  H   1.61008971859502     -1.01270455878105     -1.43683496791913
  H   -0.00659935463958     -0.41617181694544     -1.71647085735035
  H   1.93282107838725      1.15679791019882     -2.40608685506681
  H   0.66699410825906      1.88056132825339     -1.45580843740339
  H   3.07476283867299      2.44886573061771     -0.60760353376994
  H   3.42865226793746      1.28016663108335      1.45601755887896
  H   1.68705339627795     -0.27557944669371      2.23081797203272
  H   2.51920658516632     -1.19350879872550      1.00560379693480
  C   6.36030224707548      0.58083019176155     -0.80678103923817
  C   6.04349100274734     -0.93649918524367     -0.79333141667388
  C   4.81789280897495     -1.20647169854294     -1.70386370304215
  C   7.25702481481545     -1.75285619646230     -1.30527661910525
  C   8.52075177110348     -1.49775606925414     -0.45038881360840
  C   8.19737592912984     -1.50312457580782      1.04046611760238
  C   6.97732750286314     -1.45782750927388      1.52054328513251
  C   5.72422877562251     -1.39061204709705      0.65367135728891
  H   7.14145677934779      0.82091471114880     -0.09701924270117
  H   6.68147496438460      0.89246707369499     -1.79355135307377
  H   5.47418584831018      1.14522755505951     -0.54149380855816
  H   5.01938657852791     -0.87933915057615     -2.71722295014776
  H   4.58379480735443     -2.26425418090945     -1.72638370663322
  H   3.95265313637776     -0.66773476262850     -1.33622626762680
  H   7.00529497499881     -2.80625739421792     -1.26754370547485
  H   7.45570031438003     -1.50348092007763     -2.34083737437094
  H   9.26704200190402     -2.25846207555858     -0.66148915976596
  H   8.96935698183841     -0.54481032106273     -0.71916780660313
  H   9.04465905127689     -1.54294154930256      1.71057461404535
  H   6.81520980020111     -1.47295781204045      2.58929521019111
  H   5.00836473801614     -0.70804694203898      1.09826349367347
  H   5.25087509323384     -2.36865049467776      0.63171978762717
