44
Coordinates from ORCA-job dimer_006617/dimer_006617
  C   2.30136118431182     -3.06334719952081     -2.82275609423772
  C   2.90003167932139     -2.11301840189703     -1.74475892915753
  C   3.34439324139450     -2.94711195785526     -0.50039704493765
  O   4.00946078512136     -1.46828418365148     -2.35049011889513
  C   1.80873366785975     -1.08179793333252     -1.31832706183097
  C   2.29048863880450      0.04829240444966     -0.34793277427171
  C   2.14459228482058      1.09537459650715     -1.50192699401986
  C   1.49942134270655     -0.00445326090720     -2.40918335780247
  H   1.45196462640846     -3.60481640159543     -2.42257399884266
  H   1.97830590432261     -2.49174014449300     -3.68510441894628
  H   3.05329775844776     -3.77562301645607     -3.14347927399071
  H   4.07042026766736     -3.69598758016671     -0.79556038070341
  H   3.79524495879910     -2.30604427119326      0.24872713327247
  H   2.49051318917922     -3.44688420215640     -0.05774086126672
  H   4.51903175091508     -0.97009895263234     -1.67829944973781
  H   0.94085305839356     -1.62228600153357     -0.96345450338254
  H   1.60805549597979      0.22037465452812      0.47553020279972
  H   3.28858162889619     -0.06916806103048      0.05433850311054
  H   1.51466285403857      1.94827479746162     -1.27979609733072
  H   3.09326735501946      1.45460359916103     -1.88178004767654
  H   2.00253089499888     -0.16591976252288     -3.35458964457814
  H   0.44167821542795      0.14388348297302     -2.59032614841429
  C   7.01890803701009     -2.10039009381519     -0.71657381788904
  C   7.04721752646068     -0.54644929959921     -0.75160957646293
  C   7.54787326427993     -0.04601883491279     -2.14184914990161
  O   5.70058982113352     -0.11738230372184     -0.52836750994609
  C   7.98457679372014     -0.02317588017511      0.37312422750751
  C   8.03738668037655      1.52205290341429      0.62168486406306
  C   7.76000650923076      1.27418210972501      2.14304034405475
  C   7.48646164711537     -0.23732611650798      1.83857530012401
  H   8.01888385446452     -2.49181551352250     -0.86595633845301
  H   6.64687768910856     -2.44422623407103      0.24238117826424
  H   6.37134365434857     -2.48090040318276     -1.50073107798585
  H   6.88715008456950     -0.40391420493733     -2.92585745902373
  H   7.57546308748490      1.03777514209483     -2.17399228288332
  H   8.54824629884569     -0.41829145881687     -2.33272020316158
  H   5.65394536200974      0.85496139759880     -0.56579488811784
  H   8.97374233239040     -0.43296001527200      0.21110019967421
  H   8.98208976280835      1.99764486931427      0.38677415959407
  H   7.24980169785128      2.07808370390035      0.12939945445063
  H   8.63279653586719      1.43516294439629      2.76517497557703
  H   6.92805510503922      1.82608785081581      2.56460343101762
  H   6.43426861565528     -0.49479281067189      1.88122884614684
  H   8.04836731039182     -0.95017298218907      2.42986427619154
