40
Coordinates from ORCA-job dimer_006546/dimer_006546
  C   1.92203776389596      1.06990020545702      0.17793430860402
  C   1.10262812559542     -0.26061825024489      0.25784481940306
  C   1.97539366989127     -1.36210771279947      0.91485323541682
  O   -0.05166737333133     -0.08943845733215      1.07756929974060
  C   0.62247164074557     -0.63985607113815     -1.17736566545110
  O   -0.37945096464998      0.24318171269486     -1.62668837382491
  C   1.58232644948086     -1.24038551343673     -2.20410135447334
  C   0.45704038651966     -2.09226684920342     -1.61351647290395
  H   2.81266576321230      0.91581558535392     -0.42458312523174
  H   1.32991301239821      1.86761703899324     -0.25442202380421
  H   2.21773678270132      1.37254554175276      1.17584391799611
  H   2.29614473450525     -1.01987567558208      1.89230797673683
  H   1.40168961800481     -2.27140743526627      1.04803050751851
  H   2.85423320506413     -1.56660307638485      0.31303934849768
  H   -0.75126566694066      0.31368919785922      0.52726754203597
  H   0.03098497881339      1.03631158686293     -2.01909865798702
  H   1.47850790425845     -0.92182441752311     -3.23063064196519
  H   2.60082721283241     -1.43258260559026     -1.89836744517439
  H   0.70762092019986     -2.88029317840504     -0.92147250543779
  H   -0.38753496098606     -2.31087516298279     -2.25125234455358
  C   6.00387922035033      1.64098171612142     -0.41194720505983
  C   5.88777615932204      0.08039937989585     -0.39341004346617
  C   5.60629891192830     -0.40254798684403      1.05428116009967
  O   4.79300917272324     -0.34135993075974     -1.20413655534225
  C   7.18777927875702     -0.52997284904106     -1.00221743808262
  O   7.25703458483909     -0.28018531074684     -2.38634614642701
  C   8.49086364671369     -0.60536782251387     -0.20575404052935
  C   7.72664910801741     -1.88452882231948     -0.55289714085867
  H   6.83998164568278      1.96440412568001      0.19855945019845
  H   6.14538707039483      2.00753389503271     -1.42223788747725
  H   5.09348963115008      2.07851986750623     -0.01691075906895
  H   4.71560830248294      0.09262857630016      1.42560266833737
  H   5.43087976264728     -1.47178131643060      1.07049516642625
  H   6.43285702867339     -0.16372532107864      1.71307818107538
  H   5.09983780377504     -0.35444751278238     -2.13212683262501
  H   7.67883104268542      0.58402139103314     -2.55056369530070
  H   9.41279087108022     -0.41546971099350     -0.73590226749753
  H   8.49234221281099     -0.26281220058032      0.81747360401494
  H   7.21779681441166     -2.41747336896303      0.23493244535834
  H   8.14350052934229     -2.51805726160068     -1.32338900891730
