40
Coordinates from ORCA-job dimer_007598/dimer_007598
  C   0.53240435895481      1.63478326002444     -1.15619750736978
  C   0.95904927810011      0.36669505078807     -0.35214893267709
  O   1.89584876646991      0.70356898029569      0.67124141698480
  C   -0.26186221229294     -0.31955221300339      0.31219270691181
  O   -0.78886306663274      0.47141967942589      1.34950802895897
  C   -1.19714795547131     -1.21675919586423     -0.50094754462332
  C   -0.27045004221214     -1.82874945501417      0.55213362182143
  C   0.90592174155825     -2.72439625145271      0.14485806983042
  H   1.40635641777777      2.09618424250886     -1.60574986311414
  H   -0.16532344470773      1.36359816075032     -1.94237056062291
  H   0.06048844915494      2.36249046648765     -0.50477676010462
  H   1.45299881028814     -0.33180764975746     -1.03051788291093
  H   1.39356175530595      1.03034460242608      1.44420992892880
  H   -1.44756813617334      1.09739839098966      0.99407087758722
  H   -2.25474604923267     -1.17156041084421     -0.28604909528931
  H   -0.96234468637778     -1.37783428257970     -1.54239403154268
  H   -0.75354715509354     -2.11719268307749      1.47615549762578
  H   1.21811199288988     -2.52595367014331     -0.87344918813862
  H   1.75942030457496     -2.57006554013889      0.80325320534225
  H   0.60992986381438     -3.76793876363163      0.20419295483051
  C   5.32027507327656      1.39200768918328      0.21896363870891
  C   5.91559095503589     -0.03849297076675      0.42610299851948
  O   6.41424347023420     -0.20717219846099      1.74980480079507
  C   4.84124372177572     -1.12731071206867      0.15574086916802
  O   3.87075858618905     -1.16270896180291      1.16227570053795
  C   4.46379225786352     -1.48200641365118     -1.28635006482990
  C   5.24494058993336     -2.48007440704506     -0.42774255031736
  C   6.70192300846165     -2.83349444188717     -0.74548776032097
  H   6.07540049535203      2.13860939536769      0.44189897222712
  H   4.99265958811671      1.51777073414371     -0.80741050538535
  H   4.46986766136957      1.55399837636057      0.87239096566681
  H   6.75402162070729     -0.16738436383067     -0.26014188263598
  H   5.66271413236241     -0.49323753193929      2.30612012326785
  H   3.19019250815128     -0.46665945612064      1.01304212187833
  H   3.43132631951824     -1.70185223507183     -1.50386765703445
  H   4.98708772770778     -0.97761595407877     -2.08349106695562
  H   4.66137797273410     -3.30605708602111     -0.04649793560196
  H   7.20123632663407     -2.02588505057082     -1.26766345580737
  H   7.25122698673044     -3.03932289949410      0.16956731758077
  H   6.74286800715086     -3.71641823043464     -1.37684557188992
