36
Coordinates from ORCA-job dimer_009523/dimer_009523
  C   0.91609758221926      1.78784119288232     -1.02904076174075
  C   0.40347393675807      0.32428851270665     -1.01197671224197
  C   1.52228578888165     -0.68043217749218     -1.40580399036812
  C   1.99358503696615     -0.53171689897138     -2.87529326065325
  O   2.62129298586701     -0.66258948074131     -0.45797494300596
  C   2.45751819111337     -2.02437212226134     -0.00820466159048
  C   1.23301428848253     -2.16562673511596     -0.97940405496760
  O   0.43953581375835     -3.00669596017966     -1.26286173563135
  H   1.79669832534457      1.88236435116607     -0.40101307331467
  H   1.17331813172745      2.10213073361412     -2.03418260084069
  H   0.14998129646276      2.45728957710946     -0.65071600956934
  H   0.04728612631638      0.07883539171913     -0.01589537893899
  H   -0.43056330991146      0.20217891548820     -1.69766235327656
  H   2.39108041342805      0.46281360282111     -3.04544198411385
  H   2.76993693364786     -1.25931575873902     -3.09576966429212
  H   1.15407164630602     -0.69434892470074     -3.54520224590469
  H   3.31127070422502     -2.67084422848596     -0.25305265065921
  H   2.22298998682999     -2.10837970205174      1.06094678825413
  C   6.63844936971064      0.78466456678848      1.13954201566528
  C   5.96251589426607     -0.38148251777184      0.37325417135740
  C   6.07235898095077     -0.19325205183655     -1.16532526363346
  C   5.28372014139472      1.03673773785487     -1.68090770424934
  O   7.45229673724953     -0.19903891688253     -1.62126655720992
  C   7.34885015404709     -1.40261038157251     -2.40847979456298
  C   5.83918478366249     -1.51220990856227     -1.98941747994849
  O   4.93822002842434     -2.26261889717348     -2.19996166468197
  H   7.66252991317794      0.91193551964604      0.80139433713334
  H   6.10464123240857      1.71507830148115      0.98282148840501
  H   6.64940391184012      0.57583868245175      2.20455989295217
  H   6.43649795930977     -1.31850117687747      0.64874215121725
  H   4.90832736780293     -0.44917828015483      0.63025674154284
  H   5.72087543325143      1.94631454122636     -1.28183665775553
  H   5.31405578705904      1.08624787859346     -2.76444612119595
  H   4.25038478600099      0.96040751959859     -1.35214834368073
  H   7.52478673999015     -1.24487878159677     -3.48075208346608
  H   7.99177128302997     -2.21890809698019     -2.05362288003325
