40
Coordinates from ORCA-job dimer_009481/dimer_009481
  C   0.18039497765171      1.19074301237504      0.65176743577708
  C   0.87758793161117     -0.08273096598931      0.13934956308992
  C   1.85331896015000      0.02897452602023     -1.07728851377433
  C   2.82698837400837     -0.95689040073333     -0.35441364847285
  C   2.05436582936910     -0.69816314939545      0.99000621471159
  C   2.78209623106942      0.33742738305131      1.88175852845024
  C   1.69389197760667     -1.89896185613883      1.77667754319191
  C   1.39577635154643     -2.84996342907456      2.39197249831788
  H   0.89084565279325      1.99461173143089      0.80221649411120
  H   -0.56093486673912      1.52450267016392     -0.06770835705856
  H   -0.32298336425509      0.99614974100914      1.59375608476705
  H   0.13773371207162     -0.85272672802635     -0.04790272996644
  H   1.46452694231677     -0.28723979737558     -2.03747487917812
  H   2.27193839694312      1.02307366583378     -1.17833226349673
  H   2.71627045401872     -1.97868478390577     -0.69819849623776
  H   3.87807379697175     -0.69870223512661     -0.34283945896152
  H   3.06334673487560      1.20349679556403      1.29498069460756
  H   2.14148382861891      0.65891230533511      2.69573964323428
  H   3.68006927823135     -0.10781967278697      2.29784817003315
  H   1.12292423022249     -3.71590347619312      2.95378179775008
  C   6.24444319624154      1.35129291104687     -0.37665889305876
  C   6.84315529600227     -0.05828603524031     -0.21606522559573
  C   8.38822868511298     -0.24039243636210     -0.37109812925171
  C   8.37104040195100     -1.21682904980658      0.84895953974949
  C   6.94245739414623     -0.68113555412368      1.22933018152139
  C   7.00901719258795      0.37873648078523      2.35670676174366
  C   5.92314094525878     -1.70624854459497      1.54139462169633
  C   5.10672999958370     -2.51200646245487      1.77664826330470
  H   6.78520814922303      2.07791102551185      0.21771757039008
  H   6.29396564052066      1.66045440267456     -1.41624983547779
  H   5.20416612555053      1.36212570754855     -0.06793169559023
  H   6.32125814681827     -0.75303940674650     -0.86435539779007
  H   8.73297270025556     -0.64750629834026     -1.31388420681567
  H   8.93266276842312      0.67294954585327     -0.16310812248934
  H   8.34905918112638     -2.25799652462577      0.54800596715145
  H   9.13717491075558     -1.07864127243639      1.60231544660870
  H   7.78044575025734      1.10874737096212      2.14114382333614
  H   6.05886446604533      0.89221146837395      2.45710445409448
  H   7.24253938449199     -0.10244948258394      3.30092985611054
  H   4.34834723656449     -3.23475918147858      1.98998669946656
