36
Coordinates from ORCA-job dimer_006960/dimer_006960
  C   2.02021946924585      1.22402988824900     -0.19029501726084
  C   0.97377621373024      0.11317298779069     -0.52031703857129
  O   0.00656508603619      0.56833055864830     -1.45298104393777
  C   1.65668109555907     -1.18597549766342     -1.02747876450879
  C   2.08027174340116     -1.94107291924246      0.26475062216082
  C   0.93259135490780     -1.68780865861545      1.28015647153216
  C   0.28890461650194     -0.35260100365448      0.81891764550495
  O   -0.61124627494784      0.24523193059525      1.34597641119815
  H   2.78022678217364      0.84704380370305      0.48920128469077
  H   2.49778645375027      1.54745854933389     -1.10889777098236
  H   1.53261455259658      2.07826049124709      0.26862001615868
  H   -0.58204276339000      1.20729464542808     -1.00532445626736
  H   0.92850612911773     -1.76380574135970     -1.58847628709871
  H   2.49740996380516     -0.97530519577043     -1.67681783543977
  H   2.23152870978899     -2.99828239847286      0.08025395407306
  H   3.01019520994663     -1.53049786160961      0.64836136800062
  H   0.17820046147637     -2.47042038855167      1.23545913009477
  H   1.27689888025649     -1.62175863490477      2.30851740922098
  C   5.91335311544436      1.85544905049016      0.46273557560234
  C   5.77160614729630      0.30086906432276      0.52170506636629
  O   4.76833236130307     -0.09194449148702      1.44351861674223
  C   5.50781502003717     -0.30345024182983     -0.88429976720687
  C   6.91598810087821     -0.41285392657607     -1.53701921718298
  C   7.87722245251290     -0.80722389667240     -0.38083706873958
  C   7.16346320842726     -0.32202358557762      0.90932731065403
  O   7.55095075549244     -0.41965411252814      2.04266000386129
  H   6.67955834052648      2.14607412966562     -0.24801802093472
  H   4.96826011479358      2.29308743130271      0.15675369821626
  H   6.18134888623335      2.24855044032161      1.43887904415888
  H   5.11195028084084      0.02527191844730      2.35098691905362
  H   5.06807560857141     -1.28877718816014     -0.76503826572415
  H   4.82819547104546      0.30518488156269     -1.46868989411089
  H   6.92823562527464     -1.14190956324896     -2.33969597751987
  H   7.20665897184660      0.54301866749970     -1.95904344575771
  H   8.00852114403272     -1.88580471389418     -0.32197160917811
  H   8.86490471148658     -0.36300641878870     -0.47218906686809
