40
Coordinates from ORCA-job dimer_006994/dimer_006994
  C   1.06105796995820      1.49429149827195     -0.37616579150478
  C   0.93165146996431     -0.01202067504493     -0.06621440115193
  C   2.11962909775199     -0.88628510738085     -0.59953439801737
  C   2.50798709154730     -1.18715078554608      0.87934105234779
  O   3.42771062973382     -1.73906111601425      1.40646436996614
  C   1.23948234036320     -0.45322374964390      1.41772629838657
  C   1.51925595426984      0.65436643653511      2.45550357431841
  C   0.19646923549605     -1.46100499047371      1.96348473821080
  H   2.04521689960369      1.86509659982303     -0.11528727867729
  H   0.90481404685486      1.66995144303975     -1.43599933011865
  H   0.32188571737466      2.06576476242969      0.17558131390704
  H   -0.03599621199022     -0.36553769526266     -0.39994855694149
  H   1.82103730224622     -1.77193329270377     -1.15390256090290
  H   2.87416492879073     -0.35488553350388     -1.17071620754641
  H   2.27645983327987      1.34698111545642      2.10819237501755
  H   0.61228103922753      1.21259513478916      2.66354301836649
  H   1.86669048572233      0.20701409980211      3.38175054164790
  H   0.54715453165141     -1.90188381997812      2.89154601879944
  H   -0.74286117700393     -0.95234256972903      2.15585675817748
  H   0.01539199753382     -2.25803191138340      1.25007981165631
  C   5.12405720547022      1.26809558705844      0.19878571326369
  C   5.96593059478166      0.02401714183293     -0.15597606560191
  C   7.30119004762340      0.37366369494397     -0.90093453033145
  C   8.06773874444451      0.00131453759632      0.40638903206646
  O   9.18757822439521      0.16268206486922      0.79075658009361
  C   6.77660724426702     -0.60860592777533      1.03904900357403
  C   6.43836151554795     -0.15383189887584      2.47256553859238
  C   6.80676879521126     -2.15629596219424      0.95083897976601
  H   5.74160157169522      2.03993810990397      0.64363378863360
  H   4.66568999030798      1.67839025942117     -0.69517343915442
  H   4.34084701338512      1.01313024796441      0.90287294391773
  H   5.35041906339970     -0.70277761111149     -0.67041414994509
  H   7.53858339333968     -0.29261346109913     -1.72560109902804
  H   7.41094744242026      1.39956933226445     -1.23650578714015
  H   6.45808435583426      0.92524205571282      2.56549505034200
  H   5.45137788716032     -0.51239305747211      2.74984390289978
  H   7.16255717656894     -0.56777104673536      3.16695220296554
  H   7.53620752574647     -2.55954557781782      1.64572599728672
  H   5.82554844927312     -2.54969435607906      1.20267938962321
  H   7.06502157675134     -2.48384197588995     -0.05007639776493
