36
Coordinates from ORCA-job dimer_009491/dimer_009491
  C   1.42130928405828      1.28985086057334      2.18771160334942
  C   1.08929389412773      0.45091050636863      0.92970784647397
  O   2.23246799644182      0.24458872607316      0.06359474619778
  C   2.15972839543392     -1.19721346768659      0.13815638530785
  C   0.91835929921329     -1.11292424469602      1.10511953521313
  C   1.15245681310426     -1.68348272729325      2.52334434247648
  C   -0.34016943490571     -1.63891894345542      0.53259259224930
  C   -1.33712527061008     -2.05345784490543      0.07924646215010
  H   2.32231895865712      0.92229194981010      2.66741130276578
  H   1.58135832141241      2.32595635485319      1.90391531774025
  H   0.59716002866460      1.24818648740835      2.89367370461822
  H   0.25107874019555      0.90076060196346      0.38703274438281
  H   1.96052478872743     -1.66611206417494     -0.83154048697005
  H   3.05244951939421     -1.64430833481856      0.58826790045073
  H   2.09317969179102     -1.32509017702403      2.92359727834589
  H   0.34774343915348     -1.38610764932418      3.18838541984314
  H   1.18089829692616     -2.76820286554801      2.48182016708870
  H   -2.24726271089249     -2.43209111907296     -0.33510186230734
  C   4.95268700820299      0.57556753352046     -1.82648969800989
  C   5.66751103617784     -0.05476337364813     -0.60781239151528
  O   7.11299612549901      0.06117667282202     -0.66459240360086
  C   7.20844736393432      0.75677657594170      0.59877026531775
  C   5.63988425748979      0.73967214927433      0.76084522605398
  C   4.95792724244981      2.12736768026610      0.73612428269506
  C   5.16694825995619     -0.06114746332391      1.91284611981957
  C   4.81982749617244     -0.69762128866362      2.83278623729666
  H   5.34159167278328      1.56667066021220     -2.02907703369837
  H   5.11432037408798     -0.04314542465856     -2.70413184238787
  H   3.88489847208971      0.64498176516268     -1.63055323534356
  H   5.35574285522090     -1.09701962645444     -0.48745930129791
  H   7.75713230695598      0.19073682215794      1.35922582762352
  H   7.64492633179611      1.75666931861151      0.50511574303620
  H   5.37842222124314      2.74130849310254     -0.05169010939713
  H   3.89231311751330      2.00660486004950      0.56189134207757
  H   5.10622499105929      2.62998440478072      1.68665931283607
  H   4.51401490447352     -1.27917048420391      3.67486976711798
