36
Coordinates from ORCA-job dimer_004455/dimer_004455
  C   2.63781819706098      0.04273361110772     -2.50233262048241
  C   2.08992538194031     -0.59046131902722     -1.24128038389100
  C   0.95383842353505     -0.36907582970016     -0.54265999008484
  C   -0.15438552213032      0.61102968388972     -0.87380003888955
  C   0.97173880964621     -1.23897389274173      0.60506169035058
  C   2.12885929220346     -1.95319901849111      0.54973396767001
  N   2.67685433657690     -2.87995209020926      1.45337712728768
  N   2.80788739475909     -1.57384417263909     -0.57946640862167
  H   2.86075787163983     -0.70878065578718     -3.25638627073352
  H   1.91479883183078      0.73562282425232     -2.91753912037210
  H   3.55510585770761      0.58914281885770     -2.29143905178748
  H   0.06189815680962      1.15377569053985     -1.78654727909110
  H   -1.10204100507934      0.09476351571843     -1.00422781694754
  H   -0.28268106087943      1.33474188658383     -0.07292764149689
  H   0.21746382864219     -1.30776051494138      1.36122506034607
  H   2.01307749823799     -3.32728130235290      2.06651839574252
  H   3.40961500984175     -3.48638839816116      1.10793102321599
  H   3.72653564845378     -1.89906146112726     -0.84772478284955
  C   4.68335009115106      1.20195139214900      0.78070570468216
  C   5.33616675895958     -0.10024307177709      0.36866638944658
  C   6.06295558059963     -0.43494540936011     -0.72173907266554
  C   6.49989956471715      0.47084331015602     -1.85595702092445
  C   6.36706729454515     -1.84073513582313     -0.62606325688307
  C   5.80719575371463     -2.29428764097613      0.52544500920993
  N   5.71301466681350     -3.59674109043156      1.06487947596129
  N   5.18837298134411     -1.23785186918611      1.14477292160951
  H   5.01360089706884      1.51447645547824      1.76883243712092
  H   4.93549832575516      1.98574667101544      0.07524513639520
  H   3.59862027599389      1.09691476812902      0.80016799253232
  H   6.11390424631467      1.47544116175901     -1.72694372408811
  H   7.58432568860679      0.53023050595618     -1.90785932480672
  H   6.14578083574519      0.09330841828511     -2.81156008523303
  H   6.93457092151624     -2.41624570799578     -1.32916899671398
  H   6.27059665322358     -4.28457596643464      0.57647549450407
  H   5.81709641257719     -3.65739919661559      2.07013655526743
  H   4.56409710055569     -1.32511297009871      1.93680850522040
