40
Coordinates from ORCA-job dimer_009776/dimer_009776
  C   2.09677786673763     -0.69264269859928     -1.81746831383950
  O   3.00860878248051      0.39449060751967     -1.88070213349143
  C   2.79985158095627      1.44497022324256     -0.95533400817261
  C   3.11743901575856      1.02416676091330      0.51040149806702
  C   3.69060250110728      2.65656992638815     -1.37101548045464
  C   2.83675709726304      3.90305650168330     -0.95691345886668
  O   1.53867944199440      3.42668832036527     -0.58853927840939
  C   1.36560616149857      2.09283452829199     -1.04286578322369
  H   2.02013659595727     -1.12346619995491     -0.81344899636983
  H   1.08968097347478     -0.40422840350744     -2.14201361183895
  H   2.47123944557350     -1.47187616837628     -2.49132974452729
  H   4.13606592434270      0.65179390296901      0.57510503578556
  H   3.01500553366462      1.88654928487166      1.16074793692837
  H   2.43808540179344      0.25628913405619      0.85981753159612
  H   4.65436863315790      2.63869944094224     -0.87712087584126
  H   3.84991355655149      2.62769438110471     -2.44393503287259
  H   3.27075155025776      4.42593787107152     -0.09869220748761
  H   2.76189255678738      4.61977578121480     -1.78259491194324
  H   1.01134698807930      2.05937212269358     -2.08065046045545
  H   0.63275829531083      1.59443715272120     -0.40452147926929
  C   4.10391864430162     -4.37241541208816     -1.79376721834137
  O   4.47267370222283     -3.17828188986263     -2.46603212455647
  C   5.60807702528529     -2.49966412300730     -1.96079028535116
  C   6.90349944113482     -3.36379556773184     -2.00533860563534
  C   5.79790721693202     -1.18870413832048     -2.78059618249018
  C   6.38841937053006     -0.18529193527788     -1.73839359230894
  O   6.20099948708169     -0.75512636722690     -0.43831571475588
  C   5.38909480328972     -1.91774296041344     -0.51211698400640
  H   4.84217511353698     -5.17233248618332     -1.92443014806932
  H   3.95175971276420     -4.21766565676154     -0.71873350025332
  H   3.15756698179282     -4.71001682494115     -2.22787742106734
  H   7.06880558695012     -3.73659700698723     -3.01072804121063
  H   7.75114509445011     -2.75217198741825     -1.71456658408884
  H   6.84478357569255     -4.20421856326175     -1.32399192326710
  H   6.44942296045278     -1.33238056643497     -3.63379514759047
  H   4.82891762902052     -0.84566623861421     -3.13029375089328
  H   7.45955344513335     -0.02033040126941     -1.89531452172229
  H   5.88276600423806      0.78324238878207     -1.80549780093969
  H   4.32870039512802     -1.67882831504358     -0.37665900166462
  H   5.69638522031447     -2.61129763354897      0.27402535989923
