40
Coordinates from ORCA-job dimer_006991/dimer_006991
  C   1.71833121738849      0.81845668393837     -0.99175619805599
  C   0.96837441629179     -0.15223227251632     -0.03609604957503
  O   1.21859678914931     -1.51256645060745     -0.38663325013062
  C   2.38365025966000     -1.93602061930681      0.31776760530118
  O   2.57289892861713     -1.03447045038582      1.41162231084543
  C   1.47418619734937     -0.11907409868148      1.45474786112278
  C   1.98341854079150      1.25847336872688      1.94707898377486
  C   0.36534826869671     -0.66903399070475      2.40094725156817
  H   2.79181968195735      0.67108679896670     -0.92786476463682
  H   1.40615341240521      0.62564633430844     -2.01361690880916
  H   1.48930929491317      1.85016542502079     -0.74818841138437
  H   -0.10839216426506      0.02072236658300     -0.09182301823308
  H   2.22715902712078     -2.97030932681397      0.67591664095045
  H   3.28212370448404     -1.90963876493546     -0.33060610078336
  H   2.81279447344987      1.60595420338943      1.34259356090080
  H   1.18416643836965      1.99099293166627      1.89944547956375
  H   2.31568152933614      1.17671583827109      2.97690849387214
  H   0.77198880862543     -0.82315600931683      3.39488549198636
  H   -0.45729558787204      0.03509579029452      2.46551875581838
  H   -0.01354114008840     -1.61462138268697      2.02664716007936
  C   5.70863897473691      1.68824502969153      0.33946533530234
  C   5.45962329561194      0.15474433291619      0.38618761788467
  O   5.47301429402390     -0.40257968424277     -0.92963296039051
  C   6.79996093662047     -0.84929574384667     -1.21340006224890
  O   7.52972828156194     -0.84096868693804      0.01157386921522
  C   6.60409305636778     -0.66303551983550      1.08770764334472
  C   7.31861063042459      0.06941918528024      2.24886906533075
  C   6.05078607506485     -2.04149944675569      1.55864110795420
  H   6.69463381283846      1.90613371161298     -0.05683569242150
  H   4.96820583913863      2.15539485324426     -0.30230775171128
  H   5.62806204984244      2.11877151840513      1.33173555513990
  H   4.48828581720482     -0.06129418920631      0.83932415190154
  H   6.74807996178223     -1.86543368749503     -1.64821725154950
  H   7.30540792155686     -0.18135363705993     -1.93646436761634
  H   7.78668433514441      0.98237201376055      1.89932011436719
  H   6.60532255955842      0.31118987511727      3.03024304835920
  H   8.08662881962937     -0.57342074378945      2.66679381399246
  H   6.86228220763444     -2.66122899694558      1.92468669247992
  H   5.32477380922019     -1.90046225335731      2.35307875560218
  H   5.56455322565578     -2.55289830576545      0.73534642088833
