44
Coordinates from ORCA-job dimer_006475/dimer_006475
  C   0.73029372632284      1.50036550979386     -0.80154279846675
  C   0.95864716373734      0.14962778788214     -0.07464688091904
  C   1.90980108468269     -0.79074962764327     -0.84842774582707
  C   1.32664776925351     -1.20151807562655     -2.21963207785981
  C   3.39155660862699     -0.29506752505003     -0.96872182688157
  C   3.87445619174504     -1.72997647476895     -0.53886963952150
  O   4.95220438599104     -1.84532610358879      0.36821046760207
  C   2.41461703656058     -2.03723274808826     -0.04019277641142
  H   1.67813746589746      1.97967827749182     -1.02133029867326
  H   0.19771987406763      1.35663371466040     -1.73436711827728
  H   0.14554252481931      2.17135717769044     -0.18082055131091
  H   1.37858067561680      0.34079918185539      0.90666154662747
  H   0.00765787685102     -0.35113617554214      0.07713634755024
  H   1.21096123935658     -0.33771822761996     -2.86373571267435
  H   1.98182853441649     -1.90731226176306     -2.71728508185136
  H   0.35584275660396     -1.66842351244429     -2.09280534112545
  H   3.71748908179795      0.05868478336687     -1.93882898040037
  H   3.63201947288146      0.45131111884438     -0.22093702204858
  H   4.13206545331279     -2.33929610822325     -1.40865564325368
  H   4.74858275062032     -1.38485548952634      1.20211691628699
  H   2.31561397001529     -1.89659806520868      1.02996720831340
  H   1.99924363984932     -3.00056943796059     -0.30923220811421
  C   7.67283499642837      2.20610949402231     -0.24969756520429
  C   7.06657641047893      1.12977081776518     -1.18729859346777
  C   8.02619238643041     -0.05476211037073     -1.44030308216310
  C   9.31843707016143      0.39211764445188     -2.16132354574870
  C   8.33102975662569     -0.94497957096103     -0.18894075828162
  C   8.02196691624062     -2.22922623956878     -1.05171351135847
  O   7.25528867225110     -3.26179185638152     -0.48712725675053
  C   7.36952759060031     -1.29254470778592     -2.14186463127303
  H   8.01400044587254      1.75452537079312      0.67544404345912
  H   8.51687933504784      2.69949778606086     -0.71693446465924
  H   6.93399580269901      2.96263533062750     -0.00745343012390
  H   6.15508340946534      0.74402262811893     -0.74568249279543
  H   6.79586133476947      1.58102886964416     -2.13627960929659
  H   9.89047680355780      1.07465136225438     -1.54420409956060
  H   9.94339052076797     -0.46528452286075     -2.38280109923866
  H   9.08014649883245      0.89018746259924     -3.09470320375936
  H   9.32353641519257     -0.86710847392793      0.23555046788741
  H   7.59732556024025     -0.80865876031363      0.59562746981076
  H   8.94439453368766     -2.67712788218385     -1.42783486253357
  H   6.43457650286611     -2.88442200968398     -0.10591864097274
  H   6.29016785958719     -1.27872292808260     -2.06516825979892
  H   7.64953622216989     -1.47256626674793     -3.17170117093419
