36
Coordinates from ORCA-job dimer_009614/dimer_009614
  C   1.01136404378029      1.65019378828868      0.56028632871764
  C   1.88118009298627      0.44022845420913      0.12417233620165
  C   2.36129376828771     -0.38541758584315      1.33429307886703
  O   3.19539737032916      0.28716544931357      2.24015995991715
  C   1.44253989218534     -1.48236458422575      1.88079317830299
  C   2.72688951430503     -1.86230645409710      1.12416326912575
  C   2.65444544272807     -2.45312755459130     -0.21165602019820
  C   2.60275257586277     -2.92666322405494     -1.28230645606430
  H   1.58777068095003      2.35121643779475      1.15452213651790
  H   0.64029153530700      2.17994912092675     -0.31133217755241
  H   0.15953335164864      1.31837956845013      1.14526614917479
  H   1.31113205636702     -0.20742825706736     -0.53415279697640
  H   2.74981261707339      0.78486456214897     -0.42967395190883
  H   2.67555815447021      0.94959414672938      2.73316887060465
  H   1.43803243074604     -1.66316023830486      2.94625981436697
  H   0.49624559163058     -1.64745851942735      1.38702909091304
  H   3.54492472986564     -2.23301379143984      1.73199612267009
  H   2.55951850103784     -3.35766508048578     -2.25958742318375
  C   5.70215879797369      1.12798752779120     -0.33861057778015
  C   6.12980201475351     -0.35944748696561     -0.21810223944053
  C   7.07992818447020     -0.58380168526406      0.97510906969410
  O   8.35019476905206      0.00413156264892      0.86331497346236
  C   6.47764527836926     -0.72709203309149      2.37411040315321
  C   7.08944243790340     -1.95366431588705      1.67230881575874
  C   6.23619780650246     -3.03656130765374      1.18407350869256
  C   5.55387247131125     -3.90340264803652      0.78865884031652
  H   6.56048204905557      1.77467707743700     -0.48439157732270
  H   5.04043424192394      1.26062957042708     -1.18794879313760
  H   5.17697242342529      1.43997843871030      0.55917357976834
  H   5.25020066553818     -0.98275612714990     -0.09067899446115
  H   6.63221503640227     -0.68322088125022     -1.12570251969880
  H   8.25941416472252      0.97502441579156      0.90040961889783
  H   7.03403313769750     -0.32642768012789      3.20887767301741
  H   5.40128009711641     -0.66733038618880      2.47178830339092
  H   8.05766934351210     -2.27151716584271      2.04108906842115
  H   4.92627873070871     -4.68832911367191      0.42482733777189
