40
Coordinates from ORCA-job dimer_006140/dimer_006140
  C   2.12672113928637      1.70267232510525     -0.35702928115698
  C   1.58121920701236      0.25561206576830     -0.35341627601133
  C   0.32703233900498      0.13489921681989     -1.24311148221062
  C   2.71308415872333     -0.79437360841608     -0.62421452937337
  C   2.81416131683360     -1.05523256260327      0.91963002881670
  C   1.44356880886053     -0.31280148195043      1.10119195279404
  C   2.89265796163216     -2.46196041277387      1.36624300330527
  C   2.94511695550634     -3.58015968088546      1.71146385721365
  H   3.00580058344174      1.78405035437020      0.27214613323950
  H   2.39707152121434      2.00248014096653     -1.36386034301813
  H   1.37519661007961      2.39103819245744      0.01445068218321
  H   0.56043089426090      0.40820925818999     -2.26692943799422
  H   -0.05007383292892     -0.88171386726415     -1.23699250802166
  H   -0.45698687201660      0.79388935337632     -0.88479516980423
  H   2.35150854791266     -1.66588751453254     -1.15676214776500
  H   3.61059322333594     -0.42813896948331     -1.10696356090597
  H   3.62962999213849     -0.48855173594056      1.36082851214733
  H   1.39759042951227      0.41222260265590      1.90474648619057
  H   0.61817966312165     -1.00791517182813      1.19842980107844
  H   2.99449099818885     -4.59944884713846      2.02740079829298
  C   6.24643951401581      0.76447351106261      0.67769391651375
  C   7.15460935559852     -0.45575389956643      0.39933729398347
  C   6.37105381512551     -1.77815070020501      0.53354314334152
  C   7.97195386737395     -0.28380033141537     -0.92761820599537
  C   9.22020190933402      0.15558170851333     -0.08338892789564
  C   8.49793281727183     -0.37795236025456      1.20422446362565
  C   10.52042617355901     -0.45657192565071     -0.43107431877338
  C   11.54350669680855     -0.95813682671229     -0.70368239953289
  H   6.80571682340283      1.68847616171937      0.58434663845397
  H   5.42264853495182      0.79220049753142     -0.02664644124854
  H   5.83985029673444      0.71206773819785      1.68183899890738
  H   5.55289204744191     -1.81197731650755     -0.17761516110257
  H   7.02081763953946     -2.62568695822327      0.34695617639727
  H   5.95521252926510     -1.87901569199911      1.53064118994098
  H   8.13990594504627     -1.22507022927473     -1.43720589567761
  H   7.59836701333533      0.44479174890575     -1.63682138749398
  H   9.32219475172329      1.23785983776012     -0.06078540164325
  H   8.51137270613421      0.28144134342463      2.06357628955263
  H   8.86398254159082     -1.35462112389525      1.49748345809528
  H   12.47740737662566     -1.41274684030425     -0.95320194844889
