36
Coordinates from ORCA-job dimer_009953/dimer_009953
  C   2.06843115930227      0.86843477974840     -1.25255233650243
  C   1.00013312323624      0.72793097930971     -0.16498241121590
  C   -0.31217596751889      1.51377552681776     -0.40497494316908
  O   -1.09467956280074      0.96126813369967     -1.45938891424239
  C   0.86264238752695     -0.62241087782121      0.56265789417503
  O   1.76867089133020     -1.65591675382325      0.28773927078379
  C   1.45886259423585      0.59928075077818      1.29313655946919
  O   2.83578766805655      0.61194556846167      1.54459609527969
  H   2.89117077971576      0.18057013076343     -1.08172442382894
  H   1.64973053572706      0.64663489923481     -2.22907699600303
  H   2.45965068172775      1.88176227027838     -1.26898841323711
  H   -0.93191420922590      1.47108838899625      0.49543422724725
  H   -0.06981850176639      2.56983452337707     -0.58404210066956
  H   -0.62040222343587      1.06510365334187     -2.30530370810174
  H   -0.14392837095115     -0.93214095175781      0.84594678862527
  H   1.49733225216895     -2.11798641982713     -0.52945045775328
  H   0.84219362336235      1.07693549154068      2.05483357152453
  H   3.06680549138471     -0.10956525876744      2.15984751400286
  C   5.78725407990401     -1.00519827107975      1.57779232748282
  C   5.98806270987423     -0.57177216751479      0.12283443640776
  C   5.72583845423906     -1.66868613065152     -0.93335176941391
  O   4.33697272584156     -1.84249047956035     -1.20832695711920
  C   5.61615343835096      0.86830739197750     -0.29418055230464
  O   5.20938258003109      1.77699497160969      0.68370024951465
  C   7.09326123042413      0.46268776505506     -0.17005371732855
  O   7.81634972516553      1.00917645069598      0.89595732038665
  H   5.79204807869002     -0.14938170279692      2.24416257942853
  H   4.84865742595011     -1.53603516534613      1.69974753545414
  H   6.59057397062763     -1.67129170844873      1.88025539258493
  H   6.19940466707843     -1.39207143477927     -1.87977413629246
  H   6.19021474444837     -2.60598478151546     -0.60025372894243
  H   3.83525004378229     -1.88686138752152     -0.37158761895620
  H   5.19928358827088      0.99812174829729     -1.29184236674064
  H   4.30056060035143      1.55670235703545      0.98808225254378
  H   7.68062350145927      0.33012230557304     -1.07612671291498
  H   7.25950222043452      1.70054506761955      1.31069987482560
