40
Coordinates from ORCA-job dimer_006545/dimer_006545
  C   1.59336549188688      0.67787217199394      1.27141923455482
  C   1.14075663298537     -0.56830627591171      0.44730591148360
  C   2.27862869171739     -1.62401984147104      0.37823183007374
  O   0.02894538136696     -1.19412663258120      1.07582501743214
  C   0.72693394618045     -0.13468874914552     -0.99384279543590
  C   1.71080108797721      0.73768875423430     -1.78706337016892
  C   -0.24034591687786     -1.02205765728380     -1.72256849790271
  O   -0.67185788903942      0.21238386018314     -1.09675430819783
  H   2.50459200231585      1.09893377110752      0.86530936095263
  H   0.82189645466015      1.44085508048892      1.26269157369745
  H   1.77633967870567      0.37807502218369      2.29768220586481
  H   2.55991763666931     -1.91818673026418      1.38358264720869
  H   1.93081221247140     -2.50173474693098     -0.15552237053112
  H   3.14765831885015     -1.22060123840789     -0.13332967625947
  H   -0.75115696260367     -0.61675650158963      0.96147847050399
  H   2.67668623491283      0.24020439956998     -1.86333535696657
  H   1.32698347422312      0.91618235525012     -2.78605280250860
  H   1.85057136170785      1.69596437123608     -1.29801863833792
  H   -0.23955050913468     -1.03091587481485     -2.81132787058676
  H   -0.58023984689097     -1.94342638749870     -1.25038171677408
  C   6.63448122501974      1.19760972327512     -2.13424174468902
  C   6.00424658064040      0.26707089328977     -1.05091089461264
  C   5.42628341098581      1.10837244396640      0.12059639763315
  O   4.92365859178285     -0.46988180136125     -1.60929013746496
  C   7.06868499156059     -0.74047284170591     -0.51565730884314
  C   8.41945913386109     -0.17618061185420     -0.05231467391335
  C   6.56305804842534     -2.03075534228608      0.06315709557028
  O   7.11239736790685     -1.96645641566688     -1.27707023916125
  H   7.38185390946321      1.85079855587658     -1.69953462125775
  H   7.09915805259067      0.60880147827190     -2.91867900350682
  H   5.85387106522102      1.81080835957466     -2.57260532975062
  H   4.65285705760667      1.76885782472931     -0.25742018220174
  H   4.99442395211937      0.45571730323702      0.87198545935249
  H   6.20287377543049      1.71004057467497      0.57913964931420
  H   5.29280421435967     -1.14378066888446     -2.21325465029248
  H   8.27306178048297      0.54296138383605      0.74840404766103
  H   9.05153732401049     -0.97939359655401      0.31387408499031
  H   8.93240511783618      0.31556102514856     -0.87312278430922
  H   7.16669709396335     -2.55610617627984      0.80200431069405
  H   5.48913682464835     -2.20258526163583      0.13480767668558
