36
Coordinates from ORCA-job dimer_007753/dimer_007753
  C   2.04921707862145      1.02034128146394     -0.69116842495185
  C   1.66353829060860     -0.36963736316321     -0.11337139510683
  C   1.51852140657892     -1.40346272935875     -1.26253836277978
  C   1.44421748489123     -2.83527603361280     -0.69001940770596
  O   0.51279508724141     -3.58063225585365     -0.86531339058378
  C   2.69117572467578     -3.22594733105838      0.13956012091052
  C   3.13808478837936     -2.06621514769328      1.02608627461523
  C   2.68984431363266     -0.83796462590606      0.91739388780861
  H   2.99379424412443      0.95943181322009     -1.22047501078690
  H   1.29069638179161      1.36146351875986     -1.38801656008999
  H   2.14134442545683      1.75427771503363      0.10232567932637
  H   0.70278770002110     -0.27072073815316      0.38914159523334
  H   0.63512645309202     -1.19725429094176     -1.85714478965747
  H   2.39397047645434     -1.34539367207469     -1.90607193599042
  H   2.46568285657415     -4.10553265030918      0.73778998297597
  H   3.49157413988019     -3.49536497801782     -0.55221614922742
  H   3.86498996872682     -2.31141575676769      1.78819389592048
  H   3.03834421465071     -0.07878563595403      1.60242152175315
  C   6.56004547461417      2.31261905072316      0.54362109930963
  C   5.88684145335509      0.92023436039916      0.39786311094826
  C   6.11360831861826      0.35351679913493     -1.02912216727983
  C   5.66933543412144     -1.12468245341889     -1.09227026298746
  O   4.82296230255718     -1.53517288991268     -1.84619669123440
  C   6.42327310591750     -2.03635426854134     -0.09408443961597
  C   6.65095662936048     -1.32649003042347      1.23811218930016
  C   6.41208044518388     -0.05383121699114      1.45113176297833
  H   7.63427432211386      2.23015252394039      0.41760060354647
  H   6.17746995907466      2.99821408891945     -0.20538837339187
  H   6.36121885764540      2.72885490753847      1.52565804505040
  H   4.81771035079962      1.04430732110949      0.55281867488940
  H   5.57177523994418      0.93474214975198     -1.76768586306544
  H   7.17326112378893      0.39972497263150     -1.26545579249410
  H   5.86065567307951     -2.95521812428513      0.05080384177719
  H   7.38125650495544     -2.31650870800872     -0.53559338493189
  H   7.02714317760684     -1.95088158755377      2.03742749688229
  H   6.58386659186074      0.36842198537370      2.43160261865553
