40
Coordinates from ORCA-job dimer_009691/dimer_009691
  C   1.68617879814616      0.42965958441600     -0.97916127880982
  O   1.64013675171644     -0.99462753929693     -0.98796093617606
  C   0.40736883549902     -1.51621046587579     -0.59269275328678
  C   0.37816262562204     -2.95160511917835     -0.06547078854446
  C   0.12743811199278     -1.77628949727090      0.89810341773545
  C   1.21829489044899     -1.44499693709697      1.93189753949871
  O   -1.19499620211415     -1.52952166561870      1.28542066311380
  C   -1.69307394443792     -2.39955382380116      2.29420203919129
  H   2.68879333068071      0.73044285414393     -1.29995098051382
  H   0.95042822523725      0.86087960368580     -1.66976938574676
  H   1.49789732949249      0.83612814136811      0.02215624181415
  H   -0.45461229631307     -1.19961086691540     -1.18114017783758
  H   -0.45882621282292     -3.56943969742834     -0.35528986783615
  H   1.32056623625901     -3.47107930909122      0.01902459022052
  H   2.20356795249396     -1.55281839406132      1.48498919493337
  H   1.09948095412540     -0.42668223938520      2.28982200678998
  H   1.16045908078298     -2.11717391083547      2.78197507309639
  H   -2.75683430997683     -2.17674886517119      2.42350036362142
  H   -1.58707961243827     -3.45441916576404      2.01168411721845
  H   -1.18825300397318     -2.24761556856181      3.25599158340637
  C   6.51919814081017      0.97934905847206      1.65060957353036
  O   6.12926385114658      0.52962275553555      0.35663031238939
  C   5.07679580618788     -0.38764338024407      0.37622396707374
  C   4.92993133400735     -1.32465663968259     -0.82301155456903
  C   5.37977502576630     -1.88852795595121      0.53602015137436
  C   6.84567225589994     -2.33338965024847      0.68708576040645
  O   4.43852018659692     -2.59866682514060      1.29070180996511
  C   4.19231906728440     -3.92321221423200      0.83540801168067
  H   7.35271130961433      1.67669192110376      1.52065419406485
  H   5.70040461973409      1.50240450202898      2.16098089165080
  H   6.84805627654829      0.15014428375687      2.28929921804931
  H   4.15154345365827     -0.04407904054570      0.83872083094065
  H   3.92214037455800     -1.53693036192571     -1.15779788530239
  H   5.67242302197435     -1.25512613999510     -1.60420783509014
  H   7.49922269812553     -1.58871846916233      0.24308703667333
  H   7.09726060473119     -2.43987750903565      1.73811422790234
  H   7.01775780502219     -3.28375671939718      0.19158005474289
  H   3.38242416801667     -4.33450886931093      1.44561485707805
  H   3.88578064466192     -3.94021520911613     -0.21823687465451
  H   5.07213581523395     -4.56812065517022      0.94960059020508
