40
Coordinates from ORCA-job dimer_006990/dimer_006990
  C   0.65162073055297      1.67582552358648      0.62489387931329
  C   0.59888047387859      0.14188143640805      0.81788416807728
  O   -0.35215197010897     -0.43015543162423     -0.07260661670567
  C   -0.05171176241946     -1.81250695501807     -0.28220229624325
  C   1.38542445452406     -2.06777687591345      0.28518828987261
  C   1.93914465275298     -0.61958153441667      0.51811994365279
  C   2.61966735475216     -0.09498293011264     -0.78019690535772
  O   2.78241544462123     -0.50506325311611      1.64488536286672
  H   0.81474370509908      1.92579124009981     -0.41704366021322
  H   -0.28543219116826      2.12215852587749      0.94262967893451
  H   1.45813930359863      2.09053946433168      1.22219281588754
  H   0.33950942315402     -0.07900460177325      1.86039565814618
  H   -0.79201979723124     -2.44622914302986      0.21847970489132
  H   -0.10526147015420     -2.02320359275087     -1.35491295678454
  H   1.33926202265778     -2.58880975402602      1.23508265834181
  H   1.99874100374283     -2.64414582407098     -0.39555059188013
  H   1.91155435645682     -0.09983333141691     -1.60174728753092
  H   2.98210975599762      0.91626917435473     -0.63854671899994
  H   3.45917927016601     -0.73015016668020     -1.04175806162111
  H   3.66391643672121     -0.88288314133092      1.43833178468763
  C   5.34115641651834      1.73276887143518      1.28335109863978
  C   6.18652923410465      0.68226364286739      0.52321660804801
  O   7.48434984995717      1.20947444831355      0.27935302574046
  C   8.40634024042427      0.14746779823600      0.03041533019725
  C   7.73116975037182     -1.17619876404212      0.52740000679615
  C   6.45594378107547     -0.66981703164005      1.28153304034344
  C   6.75680005413771     -0.43894187489801      2.78911806255644
  O   5.33357870065705     -1.52892387189798      1.10080499613809
  H   5.86309872948667      2.06922710418691      2.17168737731479
  H   5.17182744623518      2.59144136717674      0.64093982272545
  H   4.37927618155754      1.31379579096306      1.56939300006019
  H   5.68546350699322      0.42364771869575     -0.41784248595194
  H   8.64795740249120      0.08545027979587     -1.03691211078340
  H   9.33448612292588      0.35791309846859      0.57129793516239
  H   7.43054087177670     -1.79473417416764     -0.31182881568083
  H   8.38710576660343     -1.75557229533264      1.16538051173969
  H   7.54709555850024      0.29706894198916      2.89696833217140
  H   5.87134975855971     -0.07959305599915      3.30322710922929
  H   7.08069562744890     -1.36236460765885      3.25779568596462
  H   5.49058690757895     -2.37754051986972      1.55468334025319
