36
Coordinates from ORCA-job dimer_006199/dimer_006199
  C   -0.82511415300438      0.67937108288940     -0.21530646501250
  C   0.07621299857566     -0.42695563942832      0.41394711407615
  O   -0.69789991218820     -1.38815350576360      1.11486444398631
  C   0.88659749688852     -1.17609824007736     -0.69210879007459
  C   2.08618473398450     -0.25401593768685     -1.01626233941014
  C   2.33384324185482      0.54124265628680      0.29943205149640
  O   3.25973548609743      1.28437668859359      0.50608626023556
  C   1.19264337774443      0.22078594019654      1.29862331716222
  H   -0.22722889099323      1.38546607363963     -0.78089034033481
  H   -1.55322266974734      0.22822983385162     -0.88169701452678
  H   -1.35342451718357      1.22767517348743      0.55805803681873
  H   -1.26939162719033     -0.93943077535876      1.76537917939966
  H   1.22917446013691     -2.12108254404225     -0.28101257640672
  H   0.27344153830827     -1.38814688751197     -1.56024992178082
  H   2.98091760530562     -0.79458549316596     -1.31532212849961
  H   1.85371424270240      0.44794377319247     -1.81454084862925
  H   0.87390174362298      1.10666958212867      1.83780624075312
  H   1.55588450831455     -0.50903625813732      2.02138888492691
  C   6.82272025393264      1.34103670217929      0.61430354857927
  C   6.34436869540145      0.25439990763088     -0.39780586523640
  O   5.40030112615807      0.78192255902766     -1.31052662809312
  C   7.55398283916401     -0.31431815120649     -1.20768984361998
  C   8.23769984284742     -1.33456319317515     -0.26546192039561
  C   7.09805994685005     -1.82573203222742      0.67909912632244
  O   7.19924450203994     -2.69558086462767      1.50333571050284
  C   5.81855124866556     -0.99944404577008      0.37756056613032
  H   7.56563924592435      0.93678496576093      1.29230824234771
  H   7.25838013362122      2.17755220055791      0.07862769603097
  H   5.98364924599214      1.70228408695565      1.20099953422514
  H   4.67030246494414      1.19367520458777     -0.80476739211587
  H   7.16769380222190     -0.80921443380578     -2.09290812334385
  H   8.22307296408940      0.47492773921425     -1.52868010382454
  H   8.68441158587838     -2.17229285574757     -0.79320088939349
  H   9.02008576164491     -0.87281819274924      0.33166867705195
  H   5.27434936348150     -0.75815757402124      1.28375394885567
  H   5.16998731391326     -1.58478954567746     -0.27012938820332
