40
Coordinates from ORCA-job dimer_007773/dimer_007773
  C   1.63284838937685      0.74271232246112      1.04576337963025
  C   1.74184810136734     -0.77868790433334      0.76924097336401
  C   2.44741600282783     -1.04178617564266     -0.58471389397586
  C   2.78994757489783     -2.51871885505915     -0.76291332326390
  C   2.80539982451790     -3.38768072129480      0.22011169796150
  C   2.49640943340291     -3.04387166958360      1.68978675195731
  O   3.38285653037429     -3.71366078087548      2.57658988209073
  C   2.50670230202255     -1.49949522617985      1.90526413878896
  H   2.62021156767244      1.18293099904714      1.12881938842060
  H   1.10372081675477      1.24280893090998      0.24164347404525
  H   1.10027373058370      0.92613187548722      1.97269694421073
  H   0.74193315405908     -1.19569261778636      0.71513558401930
  H   1.81025808981560     -0.71362532360798     -1.40042869142928
  H   3.35596978242227     -0.44813344764834     -0.64463785683827
  H   3.03058528754663     -2.83184434199341     -1.76969309419809
  H   3.05130740306101     -4.42559898466923      0.03935858635115
  H   1.49362798367159     -3.42011106485180      1.92071627166021
  H   4.29254338981738     -3.37643268200324      2.42738943233840
  H   3.53288610658130     -1.15334858821171      1.92971544072964
  H   2.06144638981418     -1.26898981640341      2.86617006068038
  C   6.57879082293091      1.68598394656795     -0.76215726828479
  C   6.69331828939143      0.14301606585737     -0.68135413286576
  C   8.15096589183860     -0.32021197086641     -0.92783533203684
  C   8.34025487574920     -1.79714129920223     -0.58840751911642
  C   7.47815377122341     -2.50805746095457      0.09963043491872
  C   6.16692073262185     -1.94011777757154      0.66577126721129
  O   5.87491226140825     -2.49010462611923      1.95230666538247
  C   6.21466195297958     -0.38437891950832      0.69216668192773
  H   7.17624168046500      2.15146566730155      0.01408297622495
  H   6.92947190139745      2.04579231228180     -1.72372313272871
  H   5.54837665753367      2.00004147819376     -0.63365907398782
  H   6.06301723893492     -0.29412137887396     -1.44870831061809
  H   8.42271260064735     -0.14792107039717     -1.96536963020128
  H   8.83151189465764      0.27764415619718     -0.32577774293724
  H   9.24975570826844     -2.25556573388184     -0.95502230786921
  H   7.65180531953679     -3.55651813799200      0.30055218618410
  H   5.33694400031084     -2.25505185652819      0.02313595256982
  H   6.59775709185427     -2.28470443413059      2.57284938146038
  H   6.89845548649459     -0.05281514423722      1.46574248793621
  H   5.23279274716718      0.00790913410277      0.92919722328742
