40
Coordinates from ORCA-job dimer_011397/dimer_011397
  C   5.73646525109374     -0.64455668647200     -0.27576744456401
  O   4.86058179494446     -1.61068537332086      0.29191637811893
  C   4.30964156677151     -1.22416174071750      1.54928869912333
  C   3.26567452335533     -2.29498331031626      1.99932732011228
  C   4.00397570629847     -3.19640820596737      3.03474015896062
  C   4.47999181486547     -4.54115069638100      2.41810736250852
  C   5.19031522510267     -2.32284259426162      3.44806856970545
  C   5.35610758725400     -1.27490142692019      2.67948571162741
  H   6.59540236932990     -0.42754665550099      0.37244432635208
  H   6.10949268136099     -1.05051449297433     -1.22040079849197
  H   5.21712793681223      0.29900468553659     -0.48438634846980
  H   3.85114389451632     -0.23258361255074      1.46431084190704
  H   2.42052404114726     -1.80243580505180      2.46661142766656
  H   2.90331147737024     -2.85471213478891      1.14503011129557
  H   3.36372408817147     -3.40877797666476      3.88526743967449
  H   5.06882405584946     -4.35165925135645      1.52688256525585
  H   5.08872265821381     -5.09497071547168      3.12485426349700
  H   3.62765533634365     -5.15372898252377      2.14410634691814
  H   5.81955538249697     -2.59850089865820      4.28142301245769
  H   6.14571062378293     -0.54067419021271      2.75935965664092
  C   8.24247391806847      1.81881061083801      1.56064418856465
  O   8.18133718666094      0.45897537191082      1.96480280312148
  C   9.34726862245357     -0.30432585086837      1.66232428174320
  C   9.19434956033182     -1.73499300708561      2.28098454423977
  C   9.21767764762903     -2.74945844177986      1.09294683171519
  C   7.91334354159546     -3.58461999220166      0.97536315284518
  C   9.44388962277167     -1.85823672072634     -0.12694651938930
  C   9.51803257053099     -0.58240913272776      0.15819899502358
  H   8.28158110699188      1.92817521121543      0.46992695037462
  H   7.33539924768807      2.31315908821616      1.92233712566610
  H   9.11183703300043      2.33494480866587      1.98752950294109
  H   10.23026296690815      0.20786161169316      2.06370059474271
  H   9.99664933020452     -1.93521132736758      2.98118882392495
  H   8.25733117106956     -1.78826666671408      2.82365272982897
  H   10.05410201428904     -3.43432215264586      1.20392892932789
  H   7.05166914243580     -2.93519341668858      0.85670408546413
  H   7.96293585641171     -4.25110408334220      0.12080861547512
  H   7.76873566912556     -4.18222611685311      1.86890483013611
  H   9.52691211029586     -2.28675434046980     -1.11571877975156
  H   9.67665332645540      0.21331535150624     -0.55183564629029
