44
Coordinates from ORCA-job dimer_006966/dimer_006966
  C   1.09733706730349      1.32690128917826      1.06935671742206
  C   1.22650383964970     -0.03873279178741      0.41943086828548
  C   2.01180584309025     -0.36322830126364     -0.57717315201261
  C   1.90629880966034     -1.83828465939439     -0.95472126630575
  C   0.62853025109675     -2.29188767134124     -0.18933948212864
  C   0.42844947331505     -1.23879680602258      0.94540160308459
  C   1.05306091485213     -1.74061093956072      2.27748886206437
  C   -1.06793659688586     -0.90405241802882      1.16633481659724
  H   1.28964615333593      1.26701266230493      2.13728033441969
  H   1.79992263921167      2.02838428632046      0.63321219394995
  H   0.09324764514240      1.72213132635935      0.93766751727036
  H   2.69197239396938      0.30247330834754     -1.08261265603536
  H   1.81628551128056     -1.98926389693074     -2.02567679796971
  H   2.78848158063001     -2.38148279810667     -0.62674663484074
  H   -0.22240307243399     -2.26676300534118     -0.85899137491798
  H   0.71073040488036     -3.29777326606537      0.20205904559174
  H   2.08650407322579     -2.02884662353784      2.12517916953253
  H   1.02094077076235     -0.96498516188867      3.03375033995378
  H   0.50656972829733     -2.60048721208472      2.64812968585954
  H   -1.61632470089230     -1.79960803483183      1.43639589732156
  H   -1.18560596629625     -0.18084996033469      1.96495681214807
  H   -1.50400659674179     -0.49370656930303      0.26268997320511
  C   5.29750366117953      1.50632828059438     -0.35709194815354
  C   5.47257652702391      0.02305906259185     -0.08898697475174
  C   5.55478707561452     -0.93439720244244     -0.97891660777873
  C   5.75851069669861     -2.30938414472167     -0.34593288294724
  C   5.43226835009323     -2.03790046491759      1.15154337425684
  C   5.62920745213556     -0.50242709982618      1.34356424860614
  C   7.06440281486970     -0.19146579133281      1.85348992805596
  C   4.58526243510863      0.09932499856960      2.31574743268849
  H   6.11403178403558      2.07581609824604      0.07910701651515
  H   5.27135061261160      1.70502327023077     -1.42296647534434
  H   4.37181837403768      1.86716284226749      0.08356459260414
  H   5.51143283384330     -0.80084906018711     -2.04773763680241
  H   5.11253450762715     -3.06831013985523     -0.77526457612038
  H   6.78312487654707     -2.64837203025165     -0.47902150625661
  H   4.39860095078483     -2.29434455061696      1.34802889252463
  H   6.05104260994282     -2.61488648462402      1.82688632994125
  H   7.80333317497693     -0.63675187418123      1.19714074667632
  H   7.23541976016712      0.87816732043537      1.88765615127421
  H   7.20341758614686     -0.59028688704250      2.85203217954939
  H   4.65602490660749     -0.37989800798609      3.28557348962338
  H   4.75291473621478      1.16145816944081      2.44903163354751
  H   3.58357305727931     -0.04637572707775      1.92931280979617
