38
Coordinates from ORCA-job dimer_007480/dimer_007480
  C   2.08432412134594      1.32921529032489     -0.92698548096285
  C   1.32288832017032      0.20161505601526     -0.18134757570514
  C   1.94225278146380     -1.21477888464358     -0.46007697675959
  C   2.68853760976945     -1.13341487152287      0.91332978629098
  C   1.77263327258277      0.06878221729988      1.31608045448290
  N   -0.11220472152336      0.30400309990623     -0.37583938417631
  C   -0.68739026610243      0.00916463392029     -1.60032077615895
  O   -0.06686378104799     -0.38505563368639     -2.56433939992549
  H   3.15005872706558      1.24237438195591     -0.75045747299982
  H   1.90000747517974      1.25815311377540     -1.99425325040383
  H   1.75358906179332      2.30166623978954     -0.57849403004470
  H   1.18544343548320     -1.99058542971467     -0.47355529776343
  H   2.54452140906934     -1.29667056921687     -1.35537276778599
  H   2.62613725423741     -2.01153246868232      1.54491489965236
  H   3.72871854153582     -0.84809157150691      0.81455543775164
  H   2.26072989835722      0.93739803591777      1.74143320042482
  H   0.95787537331278     -0.23568627254474      1.96291197390220
  H   -0.68245429806541      0.68342827386887      0.36127022767012
  H   -1.78618731912554      0.16235105441002     -1.60013976642798
  C   5.98439339536804      1.32497600906163      0.44439069482671
  C   6.37560485742812      0.06520448636367     -0.37248299951455
  C   7.88885677970665      0.09586578489687     -0.79967772029411
  C   8.21899100612326     -0.86526568093618      0.39078059866504
  C   6.69182427066664     -1.16484608147823      0.54862994357901
  N   5.41985071310737     -0.20657931323441     -1.43075179847383
  C   5.30581217728039      0.62763589604034     -2.53097184649066
  O   5.96218233701664      1.63398109496745     -2.69092693148422
  H   6.71589923141208      1.50308962532239      1.22432176537972
  H   5.95252054377747      2.19303261961275     -0.20691297113894
  H   5.01189553452307      1.19364991018335      0.90534483253005
  H   8.04627080033133     -0.36948625505783     -1.76578547943220
  H   8.36096877650725      1.07083949752146     -0.79402000207775
  H   8.84896666950082     -1.71609369160369      0.16034370742289
  H   8.63338055935257     -0.34680984746098      1.24768758236452
  H   6.28338707196176     -1.12312134046287      1.55099935698461
  H   6.40875277512213     -2.10467866019245      0.08878656494869
  H   4.86405018874721     -1.04357885871143     -1.38871466894059
  H   4.54334891056483      0.27062674350245     -3.25393484891530
