38
Coordinates from ORCA-job dimer_006810/dimer_006810
  C   1.53708991617659      0.71237437232285     -1.20816436645070
  C   0.60249364572697     -0.21289694639374     -0.39800937992476
  C   -0.34859493933056     -0.99291407583776     -1.32823922923423
  C   1.39019062074614     -1.06069233109272      0.66116685969361
  C   0.96681196382183     -0.04851617570919      1.77462126430764
  C   -0.10488839758966      0.54000799731073      0.79318487336310
  C   -0.21379707112368      2.01383020578114      0.70332230567814
  N   -0.28624430602941      3.14354158451327      0.62961639846271
  H   2.20174878995411      1.26410499087849     -0.55316991140750
  H   2.13812950542299      0.12098048057033     -1.89056255935411
  H   0.96009045395257      1.42531210049783     -1.78838122188270
  H   0.22226462640521     -1.60148000290680     -2.02233414857317
  H   -0.99965587199674     -1.64470392195295     -0.75616500007584
  H   -0.96416446434769     -0.30703623844792     -1.90194451033149
  H   0.95948808767435     -2.04412799102354      0.80899933571915
  H   2.45324909988912     -1.16381964295222      0.48431389079665
  H   0.57648011118821     -0.46626424914886      2.69610625322323
  H   1.74323384126753      0.66951177480288      2.01353992529586
  H   -1.09162200722240      0.12615544692377      0.98817222234344
  C   4.95862438892765      1.49884425465017      1.32558628328775
  C   5.44867575480506      0.03385505442927      1.31024927150459
  C   4.91811149488547     -0.74497172170209      2.53141986484441
  C   5.24371370858028     -0.63625508631495     -0.09398886416340
  C   6.74401459193182     -0.35988584742266     -0.43409023600457
  C   7.00528922566617     -0.07348771959778      1.08504278463290
  C   7.83194052531355      1.10539165009771      1.42963922233110
  N   8.45826548396414      2.01526509566783      1.68802433313746
  H   5.34113559332758      2.04535940070977      0.47057871638591
  H   3.87535187685559      1.52714549084620      1.29266976911267
  H   5.28749409577830      2.00298948170090      2.22871075672249
  H   3.83335031469337     -0.73888271356334      2.54179041886622
  H   5.25467185405338     -1.77550012850406      2.50770554717438
  H   5.27011713795935     -0.28841023656943      3.45129686344505
  H   5.02379023587593     -1.69488876946823     -0.02091121312307
  H   4.51253298787171     -0.16529243156562     -0.73908856036275
  H   7.31169656640781     -1.17974475173636     -0.86017604629951
  H   6.88043569526281      0.52350823628868     -1.04858453305984
  H   7.41355481825362     -0.94723006608150      1.58780509791898
