44
Coordinates from ORCA-job dimer_006936/dimer_006936
  C   2.28880876621149      0.47008022472686      1.30746241332190
  C   1.39087232215254     -0.76162449580145      1.61093003998859
  O   1.07470883782648     -1.38678445646154      0.37076480924196
  C   0.28915836354581     -2.53471086417498      0.49034067296388
  C   -1.21476570652800     -2.39100142794192      0.76855194062965
  C   -0.72358392493333     -2.81720858860655     -0.61602992594404
  C   -0.83539538476003     -1.79866030255489     -1.75541223800767
  C   -0.93239634078070     -4.27785088118771     -1.03600414928596
  H   2.57019186960190      0.97040495837344      2.22909050263127
  H   3.18818249328899      0.15416057508622      0.78827309557659
  H   1.75565381551620      1.17267213366326      0.67470270556846
  H   1.91841127735441     -1.45774179692500      2.27493414526971
  H   0.47745106284866     -0.44797870541955      2.13116744253592
  H   0.79188264244082     -3.39389706168932      0.93143708246107
  H   -1.69643158443583     -3.12182828920940      1.39881139142268
  H   -1.60516767578007     -1.39055242403007      0.86760025435293
  H   -0.62576333732934     -0.79767650001147     -1.39421295674138
  H   -0.12242562563847     -2.03232918902819     -2.53998617890398
  H   -1.83422895823761     -1.81878529521292     -2.18054197876919
  H   -1.93056174497230     -4.41307997339200     -1.44169521850908
  H   -0.21418412299684     -4.55965507689626     -1.79981134598181
  H   -0.81356232903973     -4.94604566767656     -0.19016157664553
  C   6.05922971107552      0.41041927267594     -0.62079301849788
  C   5.94044195986856     -1.04255160400220     -0.08155909216554
  O   5.28389166695985     -1.82822439972350     -1.07120530618254
  C   5.06173817087306     -3.15269526325326     -0.68873543425288
  C   3.88731901228431     -3.47798763126663      0.24613202385879
  C   3.81882725688164     -3.84826722252295     -1.23564109597121
  C   2.88160634297204     -3.02918838447519     -2.12880695600386
  C   3.94278526768680     -5.32782149525610     -1.62177271258800
  H   6.55021183459425      1.04617055098727      0.10973178475417
  H   6.63679381835216      0.41983718374880     -1.53990138119298
  H   5.07255915025841      0.81179478211480     -0.83031615807410
  H   6.93763638893730     -1.44540881237367      0.13612121880637
  H   5.37504338030092     -1.05298142297030      0.85835678038627
  H   5.95950980550545     -3.75852328047092     -0.57857654263337
  H   4.00872437018557     -4.26117850837788      0.97723707559113
  H   3.27316870275154     -2.65056166352627      0.56401583205948
  H   2.81466257324264     -2.00444600840661     -1.77759868970290
  H   3.24600612752205     -3.02390885026725     -3.15137087841140
  H   1.88713208232327     -3.46159538932724     -2.11695550590836
  H   2.97524162478253     -5.81564630342668     -1.55272531976532
  H   4.29992428733361     -5.42309824329046     -2.64275908108154
  H   4.63430465995305     -5.84557711221940     -0.96633708320026
