38
Coordinates from ORCA-job dimer_001815/dimer_001815
  C   1.30649593983579      1.09802336870307      0.50830129760674
  C   0.53191550162822     -0.10899937801738     -0.07877702417062
  C   0.77955803976264     -1.36114021344688      0.80832423950191
  C   -0.98780955929753      0.20817872598547     -0.13457705937414
  C   1.00736319046593     -0.43957685120474     -1.50968950416564
  C   1.52455455202083      0.59684990564856     -2.46722371384509
  O   2.41411097863618     -0.33526220482183     -1.80604083454843
  H   2.37571648284767      0.92752797051832      0.44958740418072
  H   1.06856965262868      2.01228775201948     -0.02103967102272
  H   1.03429568861438      1.23217060726339      1.54877099231351
  H   0.43270923471416     -1.17804063978652      1.81900536378360
  H   0.24930074604402     -2.22066595875963      0.41388496654280
  H   1.83840238248468     -1.59426734085652      0.84284309793058
  H   -1.17341918866858      1.07194086842511     -0.76340051776877
  H   -1.54133953232601     -0.63461742531784     -0.53362456220895
  H   -1.36040290899336      0.42104995306945      0.86127533121435
  H   0.51749398054153     -1.31138780318500     -1.94230162771195
  H   1.38819127671150      0.45133846953187     -3.53861820568474
  H   1.59906681655847      1.63666356932297     -2.15595651186198
  C   5.22371322734302      1.45806416593135     -0.54496937226762
  C   5.96709017201615      0.20719972318584     -0.01215452861456
  C   7.14671343109839      0.65376435652680      0.89563622486575
  C   4.98476679503835     -0.69050102608557      0.78850948053447
  C   6.54374450971291     -0.63019352977463     -1.17362849032283
  C   5.81769167482845     -0.81930456414830     -2.47408387477986
  O   6.96952912007146      0.05370453840993     -2.36964963207295
  H   5.87539201436084      2.04212876584027     -1.18547804268234
  H   4.34266976937549      1.17191022889538     -1.10674684365909
  H   4.90961987930678      2.07590776321552      0.28788076643002
  H   6.77656959249992      1.23327804061995      1.73361833874069
  H   7.67959508572813     -0.20709236697656      1.28304776750837
  H   7.84319329182651      1.26600676157853      0.33281669331683
  H   4.16368088535675     -0.99982071305361      0.15012641878219
  H   5.48826913669330     -1.57477700112105      1.16249237504051
  H   4.58112547766907     -0.14331698424909      1.63271509560422
  H   7.20174467425880     -1.43525371653408     -0.85030926212682
  H   5.96612105387522     -1.73980128565984     -3.03727285552429
  H   4.85040293473062     -0.34274453169219     -2.62655371948369
