44
Coordinates from ORCA-job dimer_007966/dimer_007966
  C   2.64826065223520      1.35468982913658      0.94093786878875
  C   2.06256175953317     -0.08075038684691      0.94172283520917
  C   1.95831297217485     -0.63504100081183     -0.51248616988455
  C   3.17243555716912     -1.55369284032532     -0.64000504859032
  C   3.56942231467168     -2.08297422023375     -2.00658190735302
  C   3.73844323793131     -1.79037705757289      0.51964333524945
  C   4.94119294982766     -2.66592123992885      0.82127091796143
  C   3.02391448578396     -1.07403137859605      1.66456621093342
  H   3.61555349681660      1.36254489922733      0.45187480881264
  H   1.99225707991649      2.03617257171913      0.41045358161562
  H   2.77387928878109      1.71971331570936      1.95438617588054
  H   1.09128517204921     -0.06377504892693      1.42110814310286
  H   1.04127859214120     -1.19868925014537     -0.66257388705375
  H   1.96982621951535      0.15981455805560     -1.25007810570465
  H   3.84429609915183     -1.26153572920548     -2.66429412803023
  H   4.40853215980855     -2.76521842716259     -1.94484551992202
  H   2.73559081715184     -2.60634175421607     -2.46802608332631
  H   5.32677008604909     -3.14065614499330     -0.07235800924018
  H   5.74008744643316     -2.07313371367810      1.26044915413334
  H   4.67397548292468     -3.44190698268185      1.53427185498127
  H   3.72041730362679     -0.56083389402413      2.31838536428312
  H   2.47780701845043     -1.78837265810338      2.27504659429333
  C   6.04881890878964      1.77070820758256     -1.81967842874433
  C   6.20740273940671      0.58361631427647     -0.83967943492243
  C   7.21510682823585     -0.49852281666828     -1.33133654246533
  C   7.96425264218678     -0.90672521134006     -0.06404851392823
  C   8.88626863460599     -2.11267892349096     -0.09954824826470
  C   7.70801848351617     -0.10703709349144      0.94409221754339
  C   8.26542499796018     -0.16180606927590      2.35568477524889
  C   6.73131969437715      1.00521065343402      0.56648088344250
  H   6.99997222951156      2.26919501080292     -1.96967385935183
  H   5.68887735950878      1.42648634704748     -2.78347027295892
  H   5.34139439947199      2.49619030084348     -1.43179210393292
  H   5.24294740463784      0.10804373180964     -0.71212036469488
  H   6.70864978163305     -1.33984731756529     -1.79234042767750
  H   7.90623971948730     -0.09783295665515     -2.06746072145305
  H   9.64555691491023     -1.98650891252480     -0.86755062546291
  H   9.38375345984601     -2.26858612066655      0.85003254986396
  H   8.32224731264431     -3.01031636889548     -0.34193617651575
  H   8.96246090409441     -0.98128758707292      2.48270793230962
  H   8.77998065012772      0.76559405991537      2.59562347576637
  H   7.45960548442508     -0.28289923823845      3.07574485987782
  H   7.24171957739330      1.96353923532035      0.53282500203158
  H   5.92533158108528      1.09834773945794      1.28683758814872
