36
Coordinates from ORCA-job dimer_003016/dimer_003016
  C   1.12156933318671      1.68300773421160     -2.12466137662600
  C   1.63217402575712      0.64573288168601     -1.09271463195114
  C   2.46104629556913     -0.48129089310725     -1.78627401935308
  O   3.57853522784907      0.03315034031605     -2.49604380246415
  C   2.91101751236913     -1.53649689967419     -0.74362763978760
  C   2.21525430163774     -2.88186305211816     -0.66904116304698
  N   3.58579967878139     -2.76290498365924     -1.22090897553287
  H   1.95530757581255      2.10603933684268     -2.67606514956286
  H   0.45029531905220      1.21430410260470     -2.83640922140588
  H   0.58808633901073      2.48800057735208     -1.62965671831826
  H   2.25732207022726      1.13417259277367     -0.35131956888136
  H   0.79823003987306      0.19338745843445     -0.56489439740818
  H   1.82632854264211     -0.97313455935939     -2.52790523024245
  H   4.18490500571333      0.49032465186709     -1.87244707925645
  H   3.31959338923900     -1.12138605846299      0.17022924881664
  H   2.13338584416802     -3.39130019940166      0.28484616080235
  H   1.38488253194871     -3.06463113594547     -1.34263799922962
  H   3.59332574238211     -2.81584678182600     -2.24299815895196
  C   6.52779704131540     -0.38998659432277      1.84819109563246
  C   7.29374756159152     -0.58510793577738      0.51487431121648
  C   6.32759983393559     -0.53087244508411     -0.70831270530566
  O   5.62710025947493      0.71759073749006     -0.76904096088613
  C   7.09046754260742     -0.82166390687480     -2.02381129468932
  C   6.92204092062827     -2.18877178671543     -2.66595240129287
  N   6.35045131048251     -0.97996508757212     -3.28943997557494
  H   5.99844556743492      0.55728041080876      1.84730258496520
  H   5.80129563730183     -1.18418274509574      1.98616824959977
  H   7.21252588164421     -0.40246603304063      2.69012657796997
  H   8.05726051126658      0.17877638148309      0.40483980474528
  H   7.79818664040527     -1.54687801957845      0.50734491653403
  H   5.55890914581592     -1.29674605298647     -0.57773095644816
  H   6.25908018607800      1.43997282307620     -0.94143671830135
  H   8.04714713997235     -0.32156508446682     -2.11447631905999
  H   7.75770977955109     -2.64161347235707     -3.18810283865734
  H   6.26856227678379     -2.89741757992267     -2.16549924237991
  H   5.33303958349051     -0.88553577759757     -3.18568132066755
