48
Coordinates from ORCA-job dimer_006134/dimer_006134
  C   1.07426378740105      0.24012258757716     -2.19230147220320
  C   1.38551718469761     -0.78093687342688     -1.07667882451379
  C   2.80107585174639     -0.62135467734432     -0.43004617979294
  C   2.14378520499103     -0.06474118547076      0.87934557390069
  C   2.55585812513787     -0.78452605192942      2.18263565883596
  C   2.32646621256180      1.46100301357430      1.03849858035795
  C   0.73859872865131     -0.49389742778212      0.32284261728761
  C   -0.43453833399106      0.49933540521423      0.41385515344461
  H   1.30744469875630      1.24957555941188     -1.87766606295122
  H   1.66571561885129      0.01849291793739     -3.07483036323219
  H   0.02550842551888      0.20290884232261     -2.46728260045154
  H   1.18040758795475     -1.77855124732427     -1.44541745378029
  H   3.31003795169302     -1.56450696980609     -0.27896312403030
  H   3.47274622222470      0.05607473239337     -0.93931733181336
  H   3.58793959946333     -0.56465988752390      2.43288235765040
  H   1.93038214450828     -0.46047198182619      3.00762282227691
  H   2.45178032216789     -1.85810239377179      2.07645563987500
  H   2.08925886759324      1.98497687742054      0.12181243507120
  H   1.68644177288540      1.84209897118404      1.82613832154313
  H   3.35486248978450      1.68534807146856      1.29825448805317
  H   0.43807344398009     -1.42678741467669      0.78336894318380
  H   -0.19278698780179      1.44839448970055     -0.04638451350007
  H   -1.30911043488709      0.09514969930628     -0.08526997833234
  H   -0.69284548109016      0.68251104182095      1.45164171857038
  C   5.96719267138823      1.90578632685952     -0.21852365190538
  C   6.17021812532488      0.47554118485962      0.32577960438110
  C   6.46714762560076     -0.60081501818881     -0.76954080702445
  C   7.95623637107454     -0.68364236074201     -0.28838707700647
  C   8.46430806177318     -2.10456202107784      0.04121604450600
  C   8.93376613816480      0.01486163791756     -1.25947079311374
  C   7.56803166358119      0.17354147553809      0.96945397407573
  C   8.47279164645584      1.35047343751835      1.37837817616514
  H   6.75565858783027      2.18052622235749     -0.90781323614986
  H   5.02135833367053      1.97339229909181     -0.74578281754453
  H   5.95642880995944      2.62811329739140      0.59080914404444
  H   5.33856101243176      0.22282349454545      0.97099625097322
  H   5.92177311035305     -1.52312361548494     -0.61629067639154
  H   6.32512389210261     -0.27855708481364     -1.79253178598711
  H   8.56134724176855     -2.69505761043066     -0.86346985234371
  H   9.43531892812705     -2.05759111317807      0.52255354310418
  H   7.77658258045675     -2.61174741934427      0.70792888420578
  H   8.58231785010629      1.00137981340656     -1.53239849242308
  H   9.91545928997113      0.11320420498441     -0.81004643213793
  H   9.03254086043400     -0.57093256640413     -2.16681414414294
  H   7.44151112620329     -0.47853908905452      1.82470265137969
  H   8.62049264169187      2.04517172635318      0.56196362259122
  H   8.03176849475381      1.89343118959738      2.20790706317037
  H   9.44524787997677      0.98595693384862      1.69260103212432
