36
Coordinates from ORCA-job dimer_009780/dimer_009780
  C   4.73126271384750      0.39894616413495     -4.08062609178218
  C   3.87239980841076      0.38411648379092     -2.78014554904703
  C   3.39808908529984      1.75916542367805     -2.47441577335994
  C   3.03973708777442      2.84713424360775     -2.23314191805114
  C   2.69457849299674     -0.61317341679009     -2.91514547818337
  C   3.11047187003225     -2.09136363325730     -3.00509813558137
  C   1.34188793940478     -0.27399041437044     -2.35673558147536
  O   1.61608095366012     -0.19850044203960     -3.77669391445216
  H   5.17340549513382     -0.57556490450488     -4.25416808302436
  H   4.10961913651201      0.66203903813400     -4.93106046643098
  H   5.52869560183538      1.12926636329101     -3.99043830358522
  H   4.48936187834579      0.04323923215375     -1.94577983096218
  H   2.71328329563204      3.84171262317076     -2.02040583127284
  H   3.64757720429279     -2.37082693528849     -2.10124686909474
  H   2.23169273205955     -2.72009371118128     -3.10369410781221
  H   3.75147217233200     -2.26054498012060     -3.86395858074621
  H   0.68689032543795     -1.08255287253065     -2.03624740943442
  H   1.18887244424421      0.67482991731596     -1.84674895446069
  C   6.77817521258837     -0.89757185054831      1.70433140815846
  C   5.56631883640293      0.08195878485176      1.65356024524010
  C   5.76035834684937      1.06955266833269      0.56082696097120
  C   5.92386828233485      1.84718571566966     -0.29837483793131
  C   4.23690330766702     -0.69634971800342      1.47954495339687
  C   3.90193587551389     -1.68025437461191      2.61402807158614
  C   3.11587815246136     -0.10061960034123      0.67372487441704
  O   3.95533910582145     -1.15427367221233      0.14417238724288
  H   6.71247450436928     -1.54275040586468      2.57316817942151
  H   6.79423008273418     -1.51031171547803      0.80823993551373
  H   7.70530406821705     -0.33566250740908      1.75898266003323
  H   5.50899937395105      0.62355172161010      2.59885885230939
  H   6.06280626726250      2.55728311769153     -1.08605053609970
  H   3.86929605331720     -1.15577506988944      3.56502826234284
  H   2.93569379321472     -2.14115743272595      2.43508179797447
  H   4.64916677420793     -2.46529895368620      2.67505748895672
  H   2.09048872835525     -0.38040765926276      0.91108275133612
  H   3.23509299747869      0.88321077268352      0.22054542388680
