40
Coordinates from ORCA-job dimer_007560/dimer_007560
  C   -0.06101670791908      1.55979869327268      0.51463947632491
  C   0.10726268030196      0.01762253562417      0.55834323543222
  O   -0.24849367238526     -0.64038714311700      1.50374613756342
  C   0.78006129078607     -0.61504895400092     -0.68250485330730
  C   -0.00804684458983     -0.28754119656306     -1.97114485703800
  C   2.31204930430266     -0.29211373845958     -0.80314618291256
  C   2.60766260456017     -1.82397411047217     -0.92313086915859
  C   1.12464834919582     -2.12948393398507     -0.52766191823384
  H   0.83088360423499      2.02421433545906      0.10566173743489
  H   -0.90480911620257      1.81926009741507     -0.12010908433395
  H   -0.24670472758461      1.94106696661361      1.51426488260546
  H   -0.03535725610820      0.78132813231516     -2.15148088307817
  H   0.46845022907934     -0.76296655205170     -2.82157813704700
  H   -1.02734381028282     -0.65439778252993     -1.90215236814757
  H   2.58790052672969      0.32148333426102     -1.65146283628436
  H   2.72832640198215      0.14428080258145      0.09775992983315
  H   2.85015243042430     -2.13387967365240     -1.93251204841612
  H   3.36661168587358     -2.20398473091117     -0.24842809448416
  H   1.01355243662598     -2.46732910090491      0.49721512596722
  H   0.58196347385050     -2.80068452631690     -1.18139525533280
  C   5.80331812437816      1.44160252777967     -0.51027257984984
  C   5.76753352474617     -0.09960480679339     -0.33948358671977
  O   5.37155696034133     -0.62176917339379      0.67242865144286
  C   6.30793479413201     -0.92149666075340     -1.53361948628292
  C   5.65813640026804     -0.49113541430694     -2.86693711096532
  C   7.87877599551283     -0.94953284900598     -1.60104471675374
  C   7.83297622009950     -2.51358538205071     -1.62832687150231
  C   6.30386725817216     -2.46497664191240     -1.29995007898710
  H   6.74560542783501      1.74905215616288     -0.95393647428248
  H   4.99642296475493      1.75672108769568     -1.16696423687862
  H   5.67877019152558      1.92435922387600      0.45434117206462
  H   5.89221655180851      0.54137955949099     -3.10040098816799
  H   6.03332637566255     -1.11298366066866     -3.67245337244094
  H   4.58012534892084     -0.60182557756803     -2.82342668074117
  H   8.31076739958533     -0.46880385290182     -2.47045996372373
  H   8.35224596574634     -0.55302686261590     -0.71012474695102
  H   8.04753286673244     -2.92621406304093     -2.60740031717795
  H   8.45662789674087     -3.01358613898461     -0.89648044312285
  H   6.07672142960173     -2.71759368806163     -0.26977097116186
  H   5.65499854456015     -3.03264845452432     -1.95496935018454
