36
Coordinates from ORCA-job dimer_007805/dimer_007805
  C   0.64201941708023      1.58326860609658      0.95285440701885
  N   1.02346678864186      0.22234498029044      0.56564519480405
  C   0.84542248731956     -0.08304076521878     -0.85368039450995
  C   1.64875969760153     -1.36796791372430     -1.18988804059756
  N   1.28511728125891     -2.43912175673535     -0.26834444254521
  C   0.86636664453940     -2.25476165876167      1.03922156443066
  O   0.76846206602760     -3.17420198886124      1.82429750453119
  C   0.45367958125046     -0.80190799885197      1.43794765023814
  H   0.92241025624025      1.75753112068296      1.99161211839668
  H   1.17549999695612      2.30305289786119      0.33310162708604
  H   -0.43073247247616      1.77588972310501      0.85321845748927
  H   -0.20581458804466     -0.21773490426406     -1.12443458406062
  H   1.23651742610598      0.74003845252654     -1.44884496331745
  H   1.42539193621837     -1.68420277316948     -2.21038652336615
  H   2.71984011917921     -1.14256708457494     -1.13156681569126
  H   1.54160315307594     -3.38392280773090     -0.51315865557056
  H   0.78674091065978     -0.64153785945294      2.46431791305480
  H   -0.64330412082998     -0.78063524445235      1.45149620684861
  C   4.45202251181561      1.07895159950902     -0.40697227644098
  N   4.81628837719798     -0.29185056421570     -0.04060361445705
  C   4.35981518705169     -0.70231475845849      1.28643859910746
  C   4.45938223924752     -2.24744711401307      1.38933425703957
  N   5.79690801675386     -2.69380165489781      1.01796023956359
  C   6.63324218025349     -2.04387519730507      0.12485806308217
  O   7.65947137643430     -2.54552979493914     -0.28357474064593
  C   6.22619795166194     -0.59059057742757     -0.27861533310247
  H   4.67309962874984      1.24683068124363     -1.46075955489535
  H   3.38364564806922      1.21770711808131     -0.25067708011997
  H   4.98477068321127      1.83590374010740      0.17653449616903
  H   4.93731372247004     -0.23924008086021      2.09127398956146
  H   3.31806806612950     -0.40356181058341      1.40314117395553
  H   4.24412137068065     -2.56461590953986      2.41172222197965
  H   3.70143929779041     -2.69255785867616      0.74065600808585
  H   6.06785387050050     -3.63555198168720      1.25893349665518
  H   6.45534006900852     -0.47469261722543     -1.33901920970706
  H   6.89704422216881      0.08393975612316      0.26805303992974
