42
Coordinates from ORCA-job dimer_009958/dimer_009958
  C   2.57707057142244     -3.87935101416044      0.62509299781508
  C   2.46245155433662     -2.35994750142421      0.43020342421698
  N   1.35942718098180     -1.56828496620681      0.99061897116806
  C   0.27640676355780     -2.20222173845377      1.75074233024511
  C   2.69635924500308     -1.36980436508505      1.56424607619862
  C   3.04132495770688     -1.82400717448861      2.98763720200202
  C   3.27982907653799      0.02256394374850      1.21509923486052
  O   2.51553109951017      1.05438799264180      1.83444807886073
  H   2.39101293787460     -4.18210841342964      1.64739476822164
  H   1.86747848443729     -4.39298442126554     -0.01827511983925
  H   3.57608875664101     -4.20749455895134      0.35314970170830
  H   2.75795784211587     -2.04224294054043     -0.56384698820069
  H   0.58031483373314     -3.05152995970940      2.36338163183278
  H   -0.17648387993074     -1.45652359930553      2.40573245201294
  H   -0.48667508624901     -2.54419853657425      1.04986874506592
  H   4.11938038815363     -1.91284352439187      3.08177588023592
  H   2.70076252744269     -1.07206192295128      3.69438763243420
  H   2.59108242891289     -2.77192069028878      3.24962561748875
  H   4.30603497106359      0.08835217053809      1.59124101682371
  H   3.30313637328828      0.14275685333765      0.12569979190305
  H   1.58567900123331      0.93287644965282      1.56017951303536
  C   7.43231357163484     -3.57296913586123      2.57343299393627
  C   6.52224661559862     -2.68604123949472      1.71119817682094
  N   6.41853248917889     -1.23400131080309      1.89977941941390
  C   7.14620910407195     -0.54093531083899      2.96813401098566
  C   7.08012950473430     -1.71320066791868      0.68094596270960
  C   8.58912851917180     -1.55458069224495      0.45616316650483
  C   6.24308627794245     -1.44859902968476     -0.59569720544020
  O   6.30400853082719     -0.07680586189007     -0.97586488906251
  H   8.40096547561890     -3.12350668371694      2.75027107236345
  H   6.96415807475918     -3.76652991006706      3.53493171427137
  H   7.58973477666072     -4.52572519968291      2.07553654670764
  H   5.57651877774994     -3.15946238643988      1.47211300552473
  H   8.12982107754493     -0.95185855319998      3.19781953631651
  H   7.27181947137625      0.50563755817711      2.68606622334754
  H   6.54271697735441     -0.57431137387002      3.87680004941887
  H   8.94595169844283     -2.34150755746301     -0.20170290847001
  H   8.78182786558396     -0.59879300001450     -0.02422109630049
  H   9.15649750358634     -1.59816393494569      1.37641987077879
  H   6.64190129333123     -2.03304392589678     -1.43022335130123
  H   5.21215583681058     -1.77423340324182     -0.41693350912415
  H   5.96538168024614      0.45950389740659     -0.23341160149166
