44
Coordinates from ORCA-job dimer_006502/dimer_006502
  C   2.80949792751661      1.13668545055893      2.21163127763445
  C   1.88241183489681     -0.11751461072613      2.30216665893571
  O   0.51034297940762      0.24255506054570      2.12947822908401
  C   2.25985513103482     -1.14588202973400      1.19453332946198
  C   1.69060070303166     -2.54658854393772      1.45119884676024
  C   0.16375760000133     -2.67364179966650      1.39899815143718
  C   2.51201518386083     -3.72920118031263      0.94681708590111
  C   2.44875587700904     -3.42356064715215      2.44070583922498
  H   2.72637655073128      1.59185304657404      1.23064974466970
  H   2.53865266562752      1.87420643891209      2.95978050683530
  H   3.83936857651071      0.83798756346623      2.37753736220407
  H   2.03611910995778     -0.59556041460057      3.27624997805976
  H   0.26881795765340      0.90971494312118      2.79785038091894
  H   1.90819954588632     -0.76905813821765      0.23905368617147
  H   3.34153986015907     -1.20995447780398      1.15439721984312
  H   -0.20837150924780     -2.33848016245339      0.43607714279380
  H   -0.13575192646035     -3.70538440487794      1.54476957777479
  H   -0.29849169425571     -2.06136363761772      2.16644964296324
  H   1.98338490284652     -4.59520665720676      0.58181839985418
  H   3.43544421951690     -3.52843507532490      0.42791305164941
  H   3.33146976599721     -3.01088158650902      2.90368059896278
  H   1.88417039958173     -4.08918730665199      3.07348543805318
  C   6.35492789416278      0.73214651797364      4.42755796930377
  C   6.39072568209185     -0.57855628613918      3.57593908755715
  O   5.08558658384249     -1.14714809522910      3.46083382974623
  C   6.92266795690486     -0.28042997860594      2.14119980930553
  C   7.33292745300464     -1.54480444188709      1.37501856170289
  C   6.18477628316416     -2.45271301745952      0.92066742194827
  C   8.54980004781574     -1.43984037673226      0.46028669644049
  C   8.64759583635291     -2.20132618405812      1.77939521808875
  H   5.73096582840844      1.47597923982762      3.94344523757016
  H   5.95594140283010      0.53792178045553      5.41806428818543
  H   7.35538213634548      1.13722264981881      4.53733099022806
  H   7.07702762630517     -1.28836358500591      4.05253744090687
  H   4.73913239881975     -1.33270271291798      4.35303356283916
  H   6.15690779830435      0.25628101662296      1.58965817746511
  H   7.78220885443799      0.37412059718063      2.23005634879866
  H   5.51413230521528     -1.90691114637247      0.26487656521322
  H   6.57003333048589     -3.31010811528253      0.38026360881466
  H   5.61336588959892     -2.80363884302428      1.77402790121593
  H   8.54695446631155     -2.00838076914535     -0.45636643613464
  H   9.05393475650710     -0.48960193150442      0.38323381598869
  H   9.21621094182397     -1.75543675151806      2.57981489884277
  H   8.71392997600279     -3.27716296938198      1.74322163577924
