38
Coordinates from ORCA-job dimer_001360/dimer_001360
  C   -0.37771998751588      0.30009980736291     -1.16937628166976
  C   0.88994901670285     -0.30452798442304     -0.55894229183567
  C   2.28934608143980      0.21929831099937     -0.89113066058576
  C   2.52525639527775      1.38067285382211     -1.86001678193221
  C   1.71646870707914      0.43002932258169      0.50910368027660
  C   1.31202778578770      1.82692403538523      1.01292528287099
  O   2.32032247966086     -0.37302294901884      1.49879911973293
  H   -0.28246571492090      1.36680201120699     -1.32781680249030
  H   -0.58583027620578     -0.16375173647911     -2.12969229000149
  H   -1.23141916537667      0.12979932532716     -0.51934818615949
  H   0.83587912948221     -1.37453429706172     -0.41889005873522
  H   3.05421151310679     -0.54342010147914     -0.93624124397588
  H   1.75001790219860      2.13305922336799     -1.79133680021472
  H   3.47970123790300      1.85545029845263     -1.65061468817434
  H   2.54662743296382      1.01278514951046     -2.88202991325412
  H   0.89434040135201      2.43122905588994      0.21778848401413
  H   0.56854117126491      1.74384120200808      1.80065870282854
  H   2.18212113630065      2.33959759846835      1.41418927561992
  H   1.67847692070536     -0.58007018445884      2.20316227068417
  C   5.96053535440952     -0.28080095181261     -1.96457846988957
  C   5.96332946640497     -0.97048430675325     -0.59674017823606
  C   7.12277097015455     -0.79800781388006      0.38875705230488
  C   8.33496376815965      0.08361804513000      0.07573576771103
  C   5.75234224313877     -0.21679162560482      0.73143823941872
  C   5.52689770461834      1.30748799909095      0.74796616820094
  O   5.08049453524019     -0.90298233670318      1.75203689986494
  H   6.31581082406329      0.73956249921213     -1.90450404865969
  H   6.60391272318968     -0.81744380229083     -2.65627935621757
  H   4.95923064902205     -0.26307097924427     -2.38243019599864
  H   5.53674025524461     -1.96208420173973     -0.61080398265076
  H   7.36808690033696     -1.68647144549555      0.95228548725974
  H   8.06308309419107      0.95818764388857     -0.50080096468071
  H   8.80376978843339      0.41840359048379      0.99660320061502
  H   9.06959905234617     -0.47813778167977     -0.49379766708092
  H   6.07572510828308      1.80880096414148     -0.03778483422215
  H   4.47149054616517      1.52720267585685      0.62236227400877
  H   5.85007972169868      1.70953397546680      1.70373046749224
  H   4.11318812769184     -0.75267308952887      1.67097132376159
