36
Coordinates from ORCA-job dimer_006445/dimer_006445
  C   1.46934651819689      0.77037422152127      0.05703229353242
  N   1.38466345913399     -0.57697049805010      0.61266337213394
  C   0.58082446461585     -1.62244085578506     -0.05404254506330
  C   0.21167995500263     -2.17884106443598      1.37113654863084
  C   1.07109447925440     -3.39439698329376      1.79506023618154
  C   0.75752542563774     -0.81258759980681      1.93098871689377
  C   -1.23178918123942     -2.43190240170872      1.59857488419485
  N   -2.33739529029027     -2.61913618585971      1.76934095375262
  H   2.07973803067315      1.39295105645790      0.71188410619288
  H   1.95183873809347      0.73264793126334     -0.92019157754511
  H   0.49363978424658      1.25221501082574     -0.06165399161056
  H   -0.28837721717732     -1.24942488385798     -0.60074895715526
  H   1.14048391292401     -2.30367148581742     -0.69493308104283
  H   2.11800817610313     -3.16661606562473      1.61980452019539
  H   0.93423309252923     -3.60492143364141      2.85195162527576
  H   0.79564663210369     -4.27511097322112      1.22250685471384
  H   1.45233438764991     -0.89150956824051      2.76854209339712
  H   -0.04100753981790     -0.11091262053188      2.18272952770102
  C   7.56393203741348      1.49831714125266      0.59735027799187
  N   6.60304001555683      0.44390499606789      0.29302319190614
  C   5.15863578809541      0.62668061917671      0.53320939156441
  C   5.07651678138240     -0.89983631631202      0.90723066487507
  C   4.53246880185525     -1.78073244706787     -0.24143186332822
  C   6.64936888456344     -0.86047468428188      0.98108313185423
  C   4.39061843628690     -1.20464468619338      2.18583775070621
  N   3.87623174836649     -1.43774541828534      3.16922226399260
  H   8.56931633392903      1.15475043793124      0.35051432167210
  H   7.34805794720953      2.37360333846479     -0.01665945445713
  H   7.55384207594833      1.80470642125537      1.64835010527440
  H   4.91298947435810      1.28310553544519      1.37125493471380
  H   4.57773702935001      0.92585193823761     -0.33900231462497
  H   5.05026984095283     -1.52493791854728     -1.16057455819870
  H   4.69486558705217     -2.83228335454610     -0.02549102863168
  H   3.46773148340760     -1.60248197490526     -0.36355668696259
  H   7.16441179271502     -1.65338385933230      0.43801279573424
  H   7.02599750791692     -0.82437303855297      2.00618940753916
