40
Coordinates from ORCA-job dimer_006988/dimer_006988
  C   -0.10369993140304      1.29111585408156      0.58088426134547
  C   0.59948891558317     -0.00021810371590      0.11357912824379
  C   1.52989465148615      0.19151188964870     -1.12798897518467
  O   2.63577858908554     -0.70478532528349     -0.97408656348388
  C   2.46006227202915     -1.51292407763908      0.18544498202796
  C   1.56123390940323     -0.65363870114154      1.15200276371556
  C   2.43144155908101      0.39587154324760      1.90189288980079
  O   0.79418176417007     -1.43802192212942      2.05245417462100
  H   0.61178697930028      2.08447318371537      0.76166056807397
  H   -0.80441980612888      1.63241921866421     -0.17447661103046
  H   -0.65442636745871      1.10415510692362      1.49764680441843
  H   -0.15394059597496     -0.74704571183580     -0.11674038804826
  H   0.99793122842420     -0.01747968131344     -2.06201859624682
  H   1.90610849841930      1.21804884264774     -1.18117706527596
  H   1.94129622859650     -2.44948603247260     -0.05254918073061
  H   3.43964498495107     -1.74570451686172      0.61506469832926
  H   2.92512036348350      1.04983390588650      1.19242552274232
  H   1.81556570499882      0.99499140182098      2.56301949129422
  H   3.19833242052498     -0.10316651056159      2.48575832910730
  H   1.38335300921027     -1.82678858731885      2.72520570953251
  C   6.45122956298421      1.34670828617752     -0.62838815938315
  C   5.86969025335122      0.01704747420756     -0.09302811614476
  C   6.40535417770057     -1.20463574527659     -0.89791941399244
  O   7.66757356687426     -1.54049667527800     -0.31385102832206
  C   7.76331827412201     -1.01494032636658      1.00565983687205
  C   6.37516197267345     -0.34607092643939      1.33643988970678
  C   6.50059538172640      0.84890839205991      2.32206697920053
  O   5.45991344759978     -1.31825481552202      1.84245794352344
  H   7.53526057941760      1.33772928894749     -0.60138150422304
  H   6.14083786741234      1.49015177588405     -1.65807038979805
  H   6.09574562417507      2.19102318783295     -0.04917536827912
  H   4.78555799775217      0.04976067088172     -0.11733628219378
  H   5.70747185203304     -2.04693280341831     -0.82077354870651
  H   6.55158031307279     -0.97380931000088     -1.95637513553416
  H   7.99587534147800     -1.81375186182410      1.71769359275037
  H   8.56866332250807     -0.27458577694355      1.05873187723269
  H   7.21525619954867      1.57812300443042      1.95924947512567
  H   5.53676682158607      1.33263915218989      2.44289161096440
  H   6.83589449912973      0.50117884362065      3.29418975444068
  H   5.81080656707129     -1.69290961152558      2.67111804350828
