36
Coordinates from ORCA-job dimer_007791/dimer_007791
  C   0.01777229878830      1.30623172322324      0.61527316690971
  C   0.66733899206030      0.13757170615970     -0.16699774520467
  C   1.32657937646113      0.62352553786412     -1.47836817534419
  C   1.93364163547376     -0.59412179451491     -2.23164528087059
  O   2.83182823174478     -1.36259561618203     -1.43442643308317
  C   2.60673686132005     -1.59354831395221     -0.10332415527612
  O   3.14597954180231     -2.53377373557944      0.42161667854978
  C   1.75539809904455     -0.55421990469966      0.68932110175525
  H   0.76075228967445      2.05833866620817      0.85870863490515
  H   -0.76064019762106      1.77408295463929      0.02128438721810
  H   -0.42381906781619      0.94917344139434      1.54024544254950
  H   -0.10080518594216     -0.58875881727365     -0.41386691094903
  H   0.59543993386811      1.10351518224804     -2.12122425427961
  H   2.10090577704868      1.35023352456801     -1.25551902590946
  H   1.12308109564249     -1.24227535705339     -2.58980164263932
  H   2.50504102185771     -0.26282513998581     -3.10582595814710
  H   2.44865404166654      0.19588204950075      1.06697171000088
  H   1.32702718285903     -1.06391924766076      1.54836506797796
  C   5.47725644323858      0.83410699172138     -0.34765223917353
  C   5.93137101473630     -0.47696411496601      0.34079762710789
  C   6.18200923195826     -1.60609258854463     -0.68398645988937
  C   6.57205677102862     -2.90157411689591      0.07976770082312
  O   7.68462347103948     -2.72745701096982      0.95842910613035
  C   7.85859683353126     -1.58362976827174      1.68769507751560
  O   8.54608630827408     -1.61522040803608      2.67663563292233
  C   7.24008960859622     -0.25811896149268      1.13765985443958
  H   6.24279134884345      1.18698173265965     -1.03018149928788
  H   4.56925314556031      0.66439991954939     -0.91575896614551
  H   5.29028800109236      1.61092661988094      0.38641347424691
  H   5.15731952820661     -0.80192459724373      1.02791509035592
  H   5.28698941343931     -1.80237862718208     -1.26783117197271
  H   6.97447680341644     -1.31623601666776     -1.36543283080770
  H   5.70296703174727     -3.25532599487380      0.65178259015423
  H   6.85653012966801     -3.69362609190618     -0.62084518047659
  H   7.98785283319636      0.19371532725417      0.48846885499264
  H   7.09361715449313      0.41075884708134      1.98084473090168
