38
Coordinates from ORCA-job dimer_001722/dimer_001722
  C   0.09968543599536      1.46623653206411      0.62933281985435
  C   0.15943806780653      0.45241708713159     -0.54274502279596
  C   -0.77898814040803     -0.75830477480416     -0.33585182497907
  C   -0.39130766972029     -1.59511411411007      0.90065314754321
  C   -2.30915485120500     -0.42515890078063     -0.45987929197850
  O   -2.41464732947471     -1.23261005320811     -1.65916045049490
  C   -1.01377486881577     -1.60665469480054     -1.63758316973987
  H   0.69830196472111      2.34278645757209      0.40460307080249
  H   -0.92039033099816      1.79098417523809      0.80375166148968
  H   0.47574477630711      1.02746964353538      1.54571446130930
  H   -0.11544592978266      0.95486576345299     -1.46400057334734
  H   1.17304775292753      0.08271183786060     -0.66081854705951
  H   -0.48626944441977     -1.01098945595835      1.80834662268773
  H   -1.03511680001418     -2.46316186245280      0.98710014856399
  H   0.63799548764493     -1.93200049638005      0.80835989493711
  H   -2.93715213190591     -0.79652380396355      0.35563905041602
  H   -2.54552763155020      0.62771706845565     -0.64020631605748
  H   -0.47082577103684     -1.26371463343890     -2.52349356234474
  H   -0.86517399523572     -2.68490148154502     -1.52409603760701
  C   6.98141675378337      0.17877023064948     -0.37560885571303
  C   5.97569886130652     -0.28033965567491      0.71197831545461
  C   4.50487516973653     -0.01983123541402      0.31362238396175
  C   4.20607720744491      1.47958610497664      0.10343783164516
  C   3.96251944874431     -0.95385068093161     -0.82679505425688
  O   3.00404069416704     -1.55038416169703      0.08293784520674
  C   3.45280524964176     -0.76307970203177      1.21423854359072
  H   7.98958472149513     -0.12013573357730     -0.10732776341414
  H   6.73987715777286     -0.26740296831242     -1.33436394161415
  H   6.96965460825826      1.25664799951377     -0.48888879134471
  H   6.10398468552405     -1.34224708324700      0.89421668789956
  H   6.18587186584763      0.23350894156707      1.64493963200393
  H   4.77740269774800      1.87248486053941     -0.72999489726635
  H   3.15278047019302      1.63045436360981     -0.10557305167546
  H   4.46454226779646      2.04511605804125      0.99274054348726
  H   3.48563288656748     -0.44246012950208     -1.66853175060137
  H   4.68307432465659     -1.68113922448357     -1.21344592345016
  H   3.87717276804390     -1.37841583888690      2.01373536314217
  H   2.66165729143612     -0.13269257900708      1.63047817374487
