36
Coordinates from ORCA-job dimer_009855/dimer_009855
  O   -1.54282331133371      0.58634031358843      2.46675123677273
  C   -0.54195934859934     -0.22328151289615      1.86210253212028
  C   -0.95018590065054     -0.56847280811705      0.38093333152732
  O   -1.31879372707744      0.63756710372579     -0.27970876751185
  C   0.21996750583225     -1.25300828512000     -0.36197689917844
  O   1.20698721320854     -0.29195500309610     -0.59418338867596
  C   0.54442247652432     -2.71007841684115     -0.02667758029470
  C   -0.08559044410752     -2.35295883415955     -1.38135039347363
  H   -1.86375354605176      1.20949232493090      1.78398068713033
  H   0.43351145827653      0.27892332595548      1.84726786853848
  H   -0.43755014376133     -1.14106707203777      2.44732988240552
  H   -1.82273725808851     -1.22679827487250      0.39394683841986
  H   -0.50211958886368      1.02691560305207     -0.65243534373887
  H   1.96401748170807     -0.67345052397220     -1.09133312631396
  H   1.57843012116224     -3.01868565764633     -0.01793502042045
  H   -0.06784676085924     -3.21207299948107      0.70695337179419
  H   -1.11675058202132     -2.61814696428432     -1.56044671347358
  H   0.54186216571590     -2.42037897145039     -2.25788948842365
  O   5.99620451174168     -0.65266042151086     -2.52498006942937
  C   5.88254065454670     -1.37220982638473     -1.30426409840934
  C   4.46025151196972     -1.16259560713484     -0.66804517973701
  O   3.45974635051553     -1.52824848283442     -1.62093549273323
  C   4.29281510228748     -2.00119270903585      0.61817688829410
  O   4.23660041723599     -3.35456791663343      0.24252618339035
  C   4.97214939228310     -1.52885258445873      1.90232403486260
  C   3.44419166522456     -1.45123654962870      1.76594449618109
  H   5.18336862291285     -0.80288360616136     -3.04681494380059
  H   6.05277877191701     -2.44869403800844     -1.44063156938602
  H   6.64812233167601     -0.99878339647008     -0.61721011849452
  H   4.32176386863707     -0.10190681809678     -0.43912337778229
  H   3.42374775904915     -2.50569447717838     -1.65974752195353
  H   4.15589472043897     -3.93323113543948      1.02239122760024
  H   5.38090543320914     -2.27357972970720      2.57037617474629
  H   5.54366917155181     -0.61236306515982      1.87038433943161
  H   2.97557247481584     -0.48513275428244      1.63838290273847
  H   2.85360642897326     -2.14750422915216      2.34426509727746
