36
Coordinates from ORCA-job dimer_004486/dimer_004486
  C   5.72792964658122      2.94024167304379      0.33062039469363
  C   6.35342420153791      1.60176842884021     -0.00810599771855
  C   6.65669631795175      1.04359703587425     -1.20106732820063
  C   7.21451324309246     -0.26210768590988     -0.96320412699368
  C   7.70768058746762     -1.23160682261971     -2.01741740157886
  C   7.23374259082339     -0.43499293407016      0.38416196742179
  N   7.76171579126337     -1.47186420167744      1.18273336978835
  N   6.71423950045032      0.69836807289496      0.97451505122326
  H   6.38559008197225      3.53950560398472      0.95710850037127
  H   5.53599827862217      3.49098905994597     -0.58472354234247
  H   4.78363341925129      2.81510026976842      0.85685567833089
  H   6.49994030273067      1.48910147532104     -2.16511165372472
  H   8.64851956544503     -0.89728754097893     -2.45004200325766
  H   7.87196937108599     -2.21734166523664     -1.59679211683111
  H   6.98273197639869     -1.32322170604304     -2.82098291783069
  H   8.19523558820622     -2.22843002225804      0.66457184493155
  H   7.16030397304409     -1.79967555346973      1.92651576282914
  H   6.62210841868053      0.84405159026078      1.96858053290637
  C   10.57065110426418      1.71252372893028     -0.63179356369736
  C   10.82340282585085      0.24421594696414     -0.90906072475810
  C   11.45812145901811     -0.37310629734644     -1.93392496122197
  C   11.38233399223390     -1.79243031349638     -1.71655250168970
  C   11.93766347911298     -2.87368888572716     -2.62176302167986
  C   10.68669938279779     -1.96884281274401     -0.56185568470872
  N   10.22153683258090     -3.14089410633510      0.08583986036095
  N   10.35912211129058     -0.73322536999054     -0.05880224988047
  H   11.00106002368821      2.01577562045651      0.32004743083685
  H   11.01615695824580      2.31515368676682     -1.41637503632560
  H   9.50103168852952      1.91895809603235     -0.60334862811485
  H   11.93806850417457      0.10922942444829     -2.76340931045606
  H   12.93403474362922     -2.61039591654189     -2.96469690445043
  H   12.00488197709647     -3.82454927080094     -2.10444587086137
  H   11.31423067100632     -3.01509771745152     -3.50224377368624
  H   10.54381621460506     -3.25575389497203      1.03998629285281
  H   10.36539310954804     -3.98182788068905     -0.45687117236214
  H   9.76200363972026     -0.58966043717382      0.74589258882456
