40
Coordinates from ORCA-job dimer_007821/dimer_007821
  C   2.24634474646149      1.37499229729751     -1.04170196835115
  C   1.90604921123100     -0.06081813456378     -0.55963870734743
  C   2.52829353022957     -1.13407441644994     -1.50651288040611
  C   2.29238180755626     -2.56345247353636     -0.94666938642055
  O   3.01279093463505     -3.47319135863324     -1.77501954286881
  C   2.77024932575701     -2.62386668407574      0.53796474812606
  C   2.12559086936550     -1.45770517979870      1.35014995536895
  O   2.41204659212784     -0.19727590799023      0.76359907973447
  H   3.32204584035665      1.51305933275653     -1.06226786043975
  H   1.85349932259407      1.53993069619346     -2.04006101467342
  H   1.81463734181417      2.10701529921836     -0.36613067735536
  H   0.81709045268776     -0.18938501814214     -0.55534163235148
  H   2.09347364804476     -1.05096718076123     -2.49716581770475
  H   3.59402485502864     -0.96091870706652     -1.59675110336323
  H   1.21716576262534     -2.77632944964954     -0.97505170828498
  H   2.85012997172265     -4.38574564606760     -1.47112625715993
  H   2.50755621802222     -3.57575228204428      0.98836823510435
  H   3.84946295879785     -2.52552080362539      0.56444389711931
  H   1.04283929786887     -1.61834884216212      1.42585037686288
  H   2.53158449325157     -1.44027981269937      2.36604763620127
  C   5.94087059978736      1.44078683203146      1.13814904370099
  C   5.99078536572430     -0.01013415529488      0.58944655114482
  C   6.36130961554187     -0.02962878855857     -0.92702350584543
  C   6.52090802338436     -1.49008350985367     -1.42989341889808
  O   6.95129995816837     -1.43429419980942     -2.78714577262740
  C   7.54685060228582     -2.22369164954646     -0.51141343742182
  C   7.10171716130441     -2.08179267937310      0.97806414858455
  O   6.95652135735425     -0.72198785300306      1.35755883335933
  H   6.90597395850893      1.92051216888873      1.01323367532996
  H   5.18818940603720      2.01522305698440      0.60798757318467
  H   5.69062158157672      1.42838085677950      2.19425988518715
  H   4.99989620144985     -0.46344010118021      0.71284222122487
  H   5.59512548341627      0.47881971420983     -1.50190975087445
  H   7.29787719309502      0.49586745077757     -1.07958129537626
  H   5.55518797919441     -2.00351001960325     -1.35050252536594
  H   6.99268585694499     -2.33902303761160     -3.14916965801319
  H   7.61974447659434     -3.27381358825317     -0.77506006586669
  H   8.52454193000459     -1.77187535273575     -0.64324354413954
  H   6.16686544818986     -2.63468859442386      1.13132992727492
  H   7.85643962125787     -2.51978027862399      1.63761374364727
