38
Coordinates from ORCA-job dimer_006462/dimer_006462
  C   1.23946424728454      1.61492446745630      1.26609911085325
  C   0.79374724482171      0.18992739306661      0.84916173499836
  C   1.89894511069590     -0.86806701330087      1.10447091566534
  C   2.27627990629488     -1.00710923028885      2.59875208572364
  C   1.69423561795558     -2.22728979633440      0.33921950908442
  C   2.93850924406845     -1.77923106216034     -0.45837348322094
  N   3.59896494887738     -2.24121007925428     -1.40267627515992
  O   3.07367249066413     -0.59779328305513      0.27862847313595
  H   2.17860600698555      1.86889002978048      0.78434007798204
  H   0.49256044797393      2.34377442811979      0.96778939153854
  H   1.37150164341591      1.68713888046371      2.33967843754739
  H   -0.10042149668763     -0.10231918947939      1.39222613002504
  H   0.54927912171085      0.18190244674497     -0.20861483355523
  H   1.39218809129245     -1.24998387645121      3.18063922812633
  H   3.00775221233644     -1.79685853887428      2.73203531302680
  H   2.69588668949205     -0.07934991038763      2.97290036909920
  H   1.83220728319270     -3.12589398660307      0.93424740150782
  H   0.78056920398178     -2.31134547699478     -0.24254542473629
  H   4.38424453886662     -1.65396743598347     -1.70760554362514
  C   7.14392413485638      1.46311789095406     -0.82419885063153
  C   6.42068349225874      0.13330509529429     -0.49120490264265
  C   6.41259992391996     -0.16734289372008      1.02958331855691
  C   5.67691499434825      0.91090107314521      1.85880371898984
  C   6.05728463985309     -1.65252903371582      1.40367175134563
  C   7.52622501553203     -1.71438231942506      1.87788217622996
  N   8.25627074272203     -2.58158101907253      2.38587315382766
  O   7.77170735310429     -0.38410667932186      1.52466786302592
  H   8.13333330146025      1.47211882220520     -0.37698282495910
  H   7.25052270534560      1.57482854435541     -1.89840406605271
  H   6.58789677606629      2.31477882699880     -0.44949615731669
  H   5.39222378992586      0.16452383518519     -0.83813831748016
  H   6.91901822713477     -0.68598466189664     -1.00011429476170
  H   4.65854457326072      1.01168667790333      1.49438169317482
  H   5.65304144991452      0.62858963207350      2.90584171087931
  H   6.18342031202608      1.86589527806374      1.77033245905109
  H   5.31944023789561     -1.77142124847536      2.19035677270024
  H   5.81259382978531     -2.30728175318411      0.57234495343215
  H   9.21561594736658     -2.27208683383141      2.58342722461431
