38
Coordinates from ORCA-job dimer_004056/dimer_004056
  C   1.11755689385605      1.57748050892198     -0.49576721169151
  C   1.57377495877055      0.12774761192436     -0.21147547206515
  C   2.56851299870344     -0.42673254663912     -1.26980688682416
  C   3.25480063079742     -1.63297386321373     -0.57257732144071
  C   3.18638975128863     -1.28709374806110      0.92101078736199
  C   2.34150797199841     -0.02724683146336      1.13056932931670
  N   3.70888711306902     -1.91497024730072      1.88600621900112
  O   4.43141205179122     -3.02177516858314      1.49908293598963
  H   1.97278694192347      2.24379430173760     -0.52523059916395
  H   0.60555429514656      1.63699783972585     -1.45066888144878
  H   0.44001842983308      1.92590493359092      0.27697907142682
  H   0.70412275602187     -0.52036768747855     -0.18581547204975
  H   2.07024249037412     -0.70771012866859     -2.19018130434021
  H   3.30385539656502      0.33275320670392     -1.50964641527511
  H   2.71266960869674     -2.55799006164656     -0.75689490331103
  H   4.27819042671941     -1.78853248224578     -0.90084233713983
  H   2.99061762364376      0.82969139485180      1.29268835742743
  H   1.68466138202649     -0.11182451156826      1.99023679546407
  H   4.76933335678543     -3.41656205347647      2.33382717409496
  C   6.07855268581286      0.68784100314167      0.60456369791627
  C   6.84023872542826     -0.63704408345650      0.37594372879324
  C   7.40988442204378     -0.78680721633736     -1.06223501535335
  C   8.48590808736142     -1.90046790710681     -0.94116253299930
  C   8.96198285586985     -1.79804953923190      0.51448545101433
  C   8.09192052117726     -0.79767053499510      1.28149881486425
  N   9.91008436329379     -2.42831488707961      1.06455744013455
  O   10.57367541863665     -3.28304970418242      0.21281482625361
  H   6.73584079120127      1.53587344719983      0.44639451980586
  H   5.24452715986666      0.77108216918973     -0.08287761378227
  H   5.69185579939791      0.73700205738911      1.61726814339996
  H   6.17245370623179     -1.47014085202210      0.56878906418945
  H   6.63947152672739     -1.03131888086154     -1.78373781989692
  H   7.87111032146054      0.14462912015031     -1.37063861357496
  H   8.05685780985537     -2.88496804099681     -1.11525064165816
  H   9.30936011740082     -1.77855076204915     -1.63938740303011
  H   8.61457171320455      0.15131162445653      1.37418162689975
  H   7.85264937157388     -1.14256813270776      2.28202523948584
  H   11.27582658544486     -3.70016210661108      0.76010236520546
