38
Coordinates from ORCA-job dimer_009877/dimer_009877
  C   0.28604882658855      1.32082872376566     -2.18635897239525
  C   0.47522501250167      0.72192180891565     -0.78709527913926
  C   -0.79786722305639      0.18848907088395     -0.11871021875530
  C   -1.37670879877551     -1.02843226716375     -0.90200736592567
  C   -2.55400112492971     -1.61907936886924     -0.20128542938587
  N   -3.44739029118151     -2.06189772092297      0.33929241476458
  C   1.77720805914627     -0.01507783304293     -0.49909465131611
  C   1.52297420125055      1.35737911473401      0.11873587580688
  H   1.22242767651844      1.73229737404433     -2.55185980314683
  H   -0.04824608776170      0.56731667907015     -2.89160876671344
  H   -0.45127992909576      2.11740625367473     -2.16087270635707
  H   -0.57662117722251     -0.11969985850412      0.89797870177813
  H   -1.54782575664143      0.97312221093063     -0.06759369063941
  H   -1.68494884058491     -0.72541947806620     -1.90251661175759
  H   -0.61008112146807     -1.79648907005181     -1.01129124273534
  H   1.74542263387720     -0.87668823354778      0.14907692795526
  H   2.49769906633902     -0.08980401746487     -1.29744468857276
  H   2.07257252355440      2.20214949947838     -0.26646451308534
  H   1.32030840506348      1.40841024335565      1.17722210444352
  C   5.43062206050634     -1.05126260086081      1.60167917709531
  C   6.36960097398280     -0.77512544136816      0.42099012515415
  C   5.69484866404216     -0.18327232065915     -0.82229047099530
  C   5.16514311698656      1.25487320929051     -0.54151029768552
  C   4.48787061322889      1.83224175952686     -1.73845729526182
  N   3.95642887113576      2.25660118236354     -2.64598569265016
  C   7.79560500344636     -0.32959828229445      0.72291428478922
  C   7.53137898927721     -1.73600611483307      0.19277285641395
  H   5.97104053042976     -1.52947199427009      2.41125409378117
  H   4.99850142237249     -0.13186885764316      1.98277837839856
  H   4.62116592331470     -1.70739172293247      1.29603692734135
  H   6.40291782048593     -0.14532887389052     -1.64389887091389
  H   4.86865263930011     -0.81789886851295     -1.12950823682401
  H   4.44702939933055      1.23995554007307      0.27815474880945
  H   5.99073122284023      1.90534050605641     -0.25056652898572
  H   8.25923572456768      0.38356598635785      0.05916927055853
  H   8.08797059405074     -0.22072223602463      1.75579359183868
  H   7.64417430165101     -2.56666395000771      0.87234500741652
  H   7.81862456092842     -1.95958139959051     -0.82310534110364
