38
Coordinates from ORCA-job dimer_007951/dimer_007951
  C   0.07196953731054      1.12448149377817      1.05772472102019
  C   0.72345541189312      0.03837850912570      0.17453822199954
  C   1.59555294650536      0.59188910050879     -0.98075064330299
  C   2.61532326085368     -0.54349814214997     -1.20163204146758
  N   3.34614707242423     -0.69054865989646     -2.20575843408084
  O   2.59741563877282     -1.39227812749567     -0.11243741855064
  C   1.73104904608549     -0.90719071813953      0.91692776961508
  C   2.56869251193780     -0.19649324213466      2.01870740091814
  H   0.81629890615687      1.80884202371821      1.44760671103143
  H   -0.64155705155465      1.69763423120164      0.47382490852474
  H   -0.45628363493453      0.67592558291100      1.89313260988445
  H   -0.05725325712999     -0.58436267930360     -0.25077415245681
  H   1.03463192553089      0.79622983071293     -1.88714902985189
  H   2.11201954508341      1.50267876528189     -0.68951220594261
  H   3.95410700840858     -1.51682788505688     -2.15184785783773
  H   1.21305175971491     -1.76544757547280      1.35382946870206
  H   3.04501825472005      0.69430964823339      1.62568936683710
  H   1.93641882611873      0.08486772752851      2.85406196533606
  H   3.33849177055748     -0.87202426000715      2.37956541311476
  C   5.35506984227662      1.60833290737489     -0.40315751713599
  C   5.84176568651748      0.26855114440714      0.18898880654897
  C   6.93724695354579     -0.43700720285147     -0.64865705983430
  C   7.70154421976874     -1.24928070821768      0.41780422868470
  N   8.50012772542488     -2.18605353325195      0.19587865633613
  O   7.35503877391585     -0.79324961880160      1.67539770632320
  C   6.52611930132026      0.36901665719247      1.59566853629048
  C   7.39412528011607      1.64613662086458      1.78581128450866
  H   6.18628430364125      2.28093210561776     -0.57883629070920
  H   4.85384080384767      1.43051492927129     -1.35065606058946
  H   4.65623537991672      2.09592540791763      0.26777985751479
  H   4.99699631780999     -0.40536356030875      0.28595272289408
  H   6.53924082453716     -1.08364822219094     -1.42377230547979
  H   7.60468978363710      0.27999014766285     -1.11939354823978
  H   8.90180085623342     -2.59081311627630      1.05041579648618
  H   5.78498461267965      0.31051373568179      2.39689761610195
  H   8.10557600527543      1.75064953869620      0.97390602328665
  H   6.76860975225228      2.53154538124943      1.81859823293851
  H   7.94396002282813      1.57455657661910      2.71925207458170
