38
Coordinates from ORCA-job dimer_002206/dimer_002206
  C   1.48259736492752      1.77712494886201      0.57952027079134
  C   1.13941393255399      0.34672344025946      0.12095421257662
  C   1.96803545265141     -0.25701421031679     -1.05949640539723
  C   2.00320099608977     -1.62784148112066     -0.28243716023170
  O   3.23373868107460     -2.31574173092631     -0.18589913889093
  C   1.57541040842924     -0.86341413058157      1.02270582523951
  C   2.76039995527786     -0.57463094760926      1.96567277769084
  H   2.54387145808103      1.88040109042031      0.77018187283719
  H   1.20507661110189      2.49367557840376     -0.18716256935881
  H   0.94633778785372      2.02779248003007      1.48922740577493
  H   0.07878089880506      0.28182791082036     -0.09343529517399
  H   1.50911791422620     -0.25290579253306     -2.04043506828565
  H   2.95620561867050      0.18261952353826     -1.12356835566493
  H   1.19867589223836     -2.28744958338164     -0.62386975809995
  H   3.42895075221910     -2.75595550789267     -1.03379763282721
  H   0.77012009610883     -1.33215491677590      1.57590451528009
  H   3.58139938534708     -0.11590809436138      1.42913842033001
  H   2.45331238544889      0.09195862723711      2.76462144731780
  H   3.12151638743509     -1.49938708885805      2.40407056425295
  C   5.71168831286483      1.22277201402267     -0.62305255312572
  C   6.03562224930499     -0.19441529382378     -0.11225482163120
  C   7.27995270493249     -0.92076489517106     -0.71819892452000
  C   7.62487019448224     -1.44681923495942      0.72720789734776
  O   8.96059880367372     -1.35027244098887      1.17701236967309
  C   6.65856201610276     -0.35853404043169      1.31931327253292
  C   7.40888593807243      0.88000827126614      1.84903696649323
  H   6.58557556045435      1.86190301117716     -0.58167531351330
  H   5.37066754765007      1.18439679619321     -1.65264905050607
  H   4.93023754746512      1.67797489036424     -0.02356639810526
  H   5.15595011679740     -0.82486442951853     -0.19717382074362
  H   7.09688108712155     -1.66129998314096     -1.48659085108427
  H   8.02798512623230     -0.21877555845488     -1.06698966451620
  H   7.21516020585731     -2.45062592869080      0.88156825042661
  H   9.50616121628440     -2.02196197100506      0.72780024745190
  H   5.97164084578409     -0.72624506083666      2.07235819416622
  H   8.12852974925741      1.23874450832702      1.12284216860182
  H   6.71006816897300      1.67956698218137      2.07075370127259
  H   7.94799914814862      0.62816759027589      2.75662187761853
