36
Coordinates from ORCA-job dimer_007518/dimer_007518
  C   1.75279020832502      0.84396536299253     -0.84832127343802
  C   1.68524371391001     -0.51482563919907     -0.13878877479430
  N   2.95860955858392     -1.21958327489881      0.12294008017558
  C   2.19294805798602     -0.71725926707008      1.27922308162500
  C   2.80530706514824      0.43495874337763      2.08416737636265
  C   1.44371497342271     -1.74894611871279      2.15227695103420
  C   2.38934743524679     -2.42167037995777      3.09078324801760
  N   3.12726513373210     -2.92138460897401      3.79228434370559
  H   2.69777646196584      1.33587469295625     -0.64589536970351
  H   1.66568085331843      0.70685112747443     -1.92292113042525
  H   0.94272593768000      1.48814045775122     -0.51672156091869
  H   0.82813759760853     -1.11777564884978     -0.42006775692352
  H   2.89320820849185     -2.23211797138138      0.00186756758212
  H   3.34952563758231      1.10995233463117      1.43552407199221
  H   2.02381405441840      0.99325735333493      2.59162709887269
  H   3.49471639420230      0.05104724793657      2.83051991066126
  H   0.66546617994048     -1.24991885990899      2.73386493126923
  H   0.95908073532980     -2.50733814154756      1.53619442923576
  C   6.16028439209702      1.92023144244523      0.47498085200568
  C   6.02108685420531      0.39330983053709      0.41414562527224
  N   7.20649732071417     -0.38673581247606      0.00219342936104
  C   6.73728633670822     -0.52319174881892      1.39251364053462
  C   7.65780572611177      0.02393934457344      2.48943498622602
  C   5.99326543842771     -1.81822230295801      1.78780465323850
  C   6.94284600151583     -2.95892560343761      1.94845740920240
  N   7.66970582717872     -3.82213866486593      2.06214447253730
  H   7.19161643451083      2.20203450309144      0.65567881607301
  H   5.84981927936517      2.36152556199816     -0.46780629541491
  H   5.54225723098007      2.33127869216253      1.26792326651018
  H   5.04806606751851      0.04047404458180      0.08189426451217
  H   6.98195136308144     -1.19191643285350     -0.58518173239598
  H   8.23619294589495      0.86041425379430      2.11464770421457
  H   7.07650460241103      0.35187493110198      3.34609367883168
  H   8.34943473575232     -0.74780145355951      2.81624093140299
  H   5.46128406173580     -1.67512795187136      2.73050820830599
  H   5.25228138989780     -2.07736604439944      1.03157334625168
