38
Coordinates from ORCA-job dimer_009519/dimer_009519
  C   0.67940783332510      1.33145998925239     -1.46866821728512
  C   0.56429189542362     -0.09938679098029     -0.88121019275696
  C   -0.36553043125742     -0.15914950707923      0.35252553400447
  C   -1.83357116055227      0.18301521490237      0.02103646278596
  C   -0.17293900580427     -1.44607513029530      1.24447125287250
  N   0.29567935009562     -0.56172552971300      2.31481803852694
  C   0.19021103342407      0.62643899175999      1.60040818950483
  O   0.43626048548412      1.76898420529218      1.86475697841921
  H   1.40488743609192      1.35001646329619     -2.27503149922462
  H   -0.27100233831246      1.66856926747642     -1.86541381531946
  H   0.99483045542445      2.03269589744493     -0.70188252363914
  H   0.18586345933635     -0.78157005146288     -1.63621295406140
  H   1.54638310827103     -0.46098195693151     -0.59205654857322
  H   -2.20977468390130     -0.48363789365559     -0.74844514783909
  H   -2.45916821161528      0.08259353929721      0.90169843819932
  H   -1.91261870221585      1.20400098735072     -0.33700566744210
  H   -1.09254320458450     -1.98633809134958      1.47189026725389
  H   0.58117014136307     -2.14213709495651      0.86831206200962
  H   0.65546723226104     -0.76526598460816      3.23417621977959
  C   3.71659449244349      0.60159351896208      1.54269534882186
  C   5.09380489104477      0.03597803712249      1.10726269610026
  C   5.01122103967001     -0.76056415981800     -0.21693366628208
  C   4.60521948810909      0.11320497627466     -1.42226508506357
  C   6.24238568228803     -1.71160879536474     -0.48287869852373
  N   5.32809904524742     -2.84412441731186     -0.32598765297420
  C   4.18177599424161     -2.09454802198892     -0.08681260462422
  O   3.04073995932858     -2.38869544676772      0.13104378712060
  H   3.79721553516046      1.08741829042696      2.50970543733882
  H   3.34690925848337      1.33286721631991      0.83321454255795
  H   2.98727206161464     -0.19789312953620      1.62082583679998
  H   5.80788274585796      0.84499295505498      0.98544892787449
  H   5.47624521934884     -0.61655161366954      1.88562053094803
  H   5.32057518369488      0.91878218217977     -1.55590207098600
  H   4.57450312240498     -0.47669094978066     -2.33233867604937
  H   3.62451589170016      0.54837751032136     -1.26433496519103
  H   6.68398154627780     -1.61591967789072     -1.47589333576461
  H   7.03142105836381     -1.65384963404872      0.26830408997038
  H   5.48549914246267     -3.83888327752543     -0.37749364028882
