36
Coordinates from ORCA-job dimer_001786/dimer_001786
  C   1.89439039342787      1.17039201727867     -0.36583738032305
  C   1.54703895304045     -0.27211415061439      0.02592412663987
  N   2.65707992024017     -1.23173584613864      0.19559207354524
  C   1.87963569156004     -0.85070303535598      1.39170771487895
  C   2.60677675480776     -0.00699653220716      2.44895942902484
  C   0.91833772840841     -1.92610596475684      1.96925163330727
  O   1.60219445066749     -3.14142668315647      2.27129181532046
  H   2.84788388828751      1.46752397547711      0.05429398521161
  H   1.95840854031713      1.25861259308673     -1.44692172232861
  H   1.12826384754933      1.85375900490952     -0.01027171226477
  H   0.63260763612442     -0.63994282018586     -0.42677856939796
  H   2.43461575400552     -2.17489199343005     -0.13146816489715
  H   3.41557587935599      0.55764411432620      1.99974681799073
  H   1.91494169558859      0.68520562722223      2.92013057105161
  H   3.03081627601425     -0.64069137447676      3.22092688532726
  H   0.40158672989518     -1.51719524780882      2.84680199564474
  H   0.15348695002055     -2.18166230667911      1.23051576006935
  H   2.33704500093473     -2.95921766941946      2.88686509075248
  C   5.86905497342615      1.80301958958642     -0.01505499827994
  C   5.72820794982180      0.28781513065899      0.18482062416239
  N   6.89395647777105     -0.55846557081431     -0.14107102061609
  C   6.48318457060178     -0.45717998180006      1.27325087966637
  C   7.44709824701408      0.27973249965640      2.21387847222624
  C   5.78247592650883     -1.69212585014250      1.89798233172530
  O   6.61640332055116     -2.85152917205618      1.88591457386266
  H   6.90692711240589      2.10572481974336      0.06416473247786
  H   5.51000625643215      2.08398276575826     -1.00095178505239
  H   5.29001795824376      2.34439297866674      0.72732939108541
  H   4.74061055016810     -0.10730854138846     -0.04206674797144
  H   6.63424781568734     -1.45507673493828     -0.55847620115360
  H   8.01775331503326      1.02137574869388      1.66709619929684
  H   6.89832060167072      0.77643768005075      3.00844888169865
  H   8.15060292129060     -0.41135384429349      2.66729666670071
  H   5.45650304981715     -1.44283449651931      2.91499489264821
  H   4.88883491481920     -1.94016017860806      1.31630594998877
  H   7.48106794849068     -2.63115655032499      2.27977880798089
