36
Coordinates from ORCA-job dimer_002345/dimer_002345
  C   3.70432948074362     -0.68517730535129      1.37557797992430
  O   3.64346720434559     -1.43845817532884      0.17254827880110
  C   2.34096567305361     -1.52174464599830     -0.39856151370692
  C   2.45072937008015     -2.29857816116516     -1.72091625361713
  N   1.46703759419561     -1.96095401073507     -2.77055323752474
  C   2.88588287729325     -1.61839088451773     -3.00879652640445
  C   3.26674614327570     -0.13421206732840     -3.08473796292990
  H   3.39474377791107      0.35669838585977      1.21989276991007
  H   3.07201477986445     -1.11761233467720      2.16206000306164
  H   4.74212445740894     -0.69036911808736      1.72337677160669
  H   1.65206037857299     -2.04029580665980      0.28138981587407
  H   1.92236915672037     -0.52746050995788     -0.59082609049459
  H   2.74617794184380     -3.33453880917185     -1.59590634972858
  H   1.15190873697254     -2.77784319862874     -3.29732170947352
  H   3.44726301189157     -2.24873785494352     -3.69188187494597
  H   2.69455204409428      0.45137686750902     -2.37591861175167
  H   4.32891224388729     -0.00267108338416     -2.88312541616681
  H   3.06080022217798      0.24662478570382     -4.08083083588833
  C   7.26870033724155      1.35478038572340     -4.35241683941404
  O   6.67194286388699      0.80015184417853     -3.18871922977911
  C   7.49739280731098     -0.14458376794440     -2.51434482670787
  C   6.68940676387978     -0.70929414655327     -1.33284713261439
  N   6.01792267926376     -2.00865480862834     -1.52538505046862
  C   7.14294396875041     -1.94110580597107     -0.57042226840588
  C   8.43371014164231     -2.69212623088936     -0.92922056132807
  H   8.19628067767979      1.89473717680280     -4.12177972339857
  H   7.49821754710954      0.58604997489449     -5.10169951251917
  H   6.55570466093430      2.06146866378352     -4.78834412103026
  H   7.78811620762116     -0.96341831443804     -3.18225021462992
  H   8.41689013565727      0.33328570124435     -2.15039811893779
  H   6.17452235585616      0.05848425078139     -0.76589314879138
  H   5.10573115388491     -2.03472431067728     -1.05551413185601
  H   6.90745928322399     -1.95046965693940      0.48799880769223
  H   8.55234888066357     -2.75196034239260     -2.00502402926854
  H   9.30095231578026     -2.19174816831902     -0.50797295354840
  H   8.39916997527972     -3.70447226779284     -0.53727421653918
