44
Coordinates from ORCA-job dimer_007642/dimer_007642
  C   1.56449164986856      1.75171636340143      0.33650681149107
  C   1.61982639328622      0.19187154247571      0.36055682637663
  O   2.34996301813899     -0.28980093446897      1.48765041367007
  C   0.19068123972897     -0.41899535453301      0.30479034704238
  C   -0.49419448392958     -0.31094699942772     -1.09736522865777
  C   -0.37293758800881     -1.86406211995260     -1.27523377125181
  C   0.61019343247453     -2.31476005483994     -2.37890043212410
  C   0.17640780488729     -1.97756809900527      0.18880262445220
  H   2.56864448510455      2.16312126836744      0.33901212377118
  H   1.04908043436165      2.09743283547691     -0.55319416916597
  H   1.03342426676177      2.12713547038270      1.20481150132486
  H   2.17203305377786     -0.15098520281762     -0.51614543542773
  H   1.86357627012290     -0.06479208988365      2.30208933047775
  H   -0.40383693954664     -0.02601087604501      1.12027834556350
  H   -1.51564134524862      0.04805862907487     -1.05849624349260
  H   0.05023241590164      0.27385940954024     -1.82768053813369
  H   -1.32773173901406     -2.35671417686719     -1.41612588891951
  H   1.56581963737309     -1.81479423166192     -2.27044988509148
  H   0.78049225346178     -3.38540361845243     -2.32413800325494
  H   0.21353003813405     -2.08094327494721     -3.36180939455960
  H   1.14874968557191     -2.44474961672217      0.28489891671070
  H   -0.50920568852667     -2.46023343473152      0.87489115215711
  C   6.65676168770212      1.38578328848932     -0.90573239183605
  C   6.70641484741891     -0.02770878038322     -0.24241924273002
  O   7.26704275744624      0.02342241922916      1.06889128864996
  C   5.29633867846521     -0.67515491598341     -0.22923423547888
  C   4.71319646931274     -1.11840192694685     -1.60944185152681
  C   4.31054836811966     -2.49204108593672     -0.97395740560366
  C   4.64916533721614     -3.76695198512023     -1.77325426616571
  C   5.20297562249053     -2.15274095384673      0.26780838076265
  H   7.64771212884985      1.82747969927405     -0.92606087940903
  H   6.28679609292984      1.30897624380031     -1.92263610808866
  H   5.99532434270382      2.04210912299528     -0.35057234160766
  H   7.37589536120398     -0.66411341575213     -0.82622402330954
  H   6.64459116343199      0.48614137859262      1.65989325943531
  H   4.60263540036260     -0.03980283444754      0.30954276506360
  H   3.91343442586820     -0.51485429091405     -2.01906271488456
  H   5.48414394784095     -1.22854973670974     -2.36208622061849
  H   3.26341915029282     -2.49731689131829     -0.69758253983319
  H   5.69645434047179     -3.77309642453921     -2.05455743646781
  H   4.45146626621020     -4.65376957664406     -1.17936637878325
  H   4.05214785313471     -3.82227551321702     -2.67815122647439
  H   6.16144688707995     -2.65713498222865      0.24513124367037
  H   4.74594313276566     -2.30012987475570      1.23884931427769
