38
Coordinates from ORCA-job dimer_002921/dimer_002921
  C   2.05930781657981     -1.08245255403310      2.50371231571949
  C   1.28375920300283     -1.87444162368111      1.41299895724601
  C   0.71417571903820     -0.96114277762023      0.33811639443290
  C   0.92772543726246     -1.04178225824458     -0.95169986044866
  C   0.19898287932620      0.02809148598107     -1.75741141421235
  C   -0.56093192907748      0.85720242545136     -0.67040062684094
  C   -0.22041983138829      0.19149566848472      0.70137535371159
  H   2.50797576788183     -1.76348733104255      3.21906868717319
  H   2.84745704526693     -0.49228848752151      2.05045882408922
  H   1.39379725361966     -0.41569473765067      3.04019942736718
  H   1.94413836290876     -2.60019585786972      0.95080791018346
  H   0.47270573222216     -2.42601254332805      1.88356646453407
  H   1.54965433115192     -1.77957063974126     -1.43149158323517
  H   0.89478233431197      0.64522704732689     -2.31892652853822
  H   -0.48527290215303     -0.41359918917074     -2.47681868982359
  H   -0.24336109182402      1.89306128373182     -0.68508514300662
  H   -1.62907748715757      0.84576262381086     -0.85196376930568
  H   -1.10972892348798     -0.17453469929709      1.20644117323995
  H   0.26114910423956      0.89087874431261      1.37744901518557
  C   3.16249599987727      1.80620761926414     -0.50954326201002
  C   4.04608053172317      0.71834280612533     -1.18337226846475
  C   4.62026130969069     -0.26111843617977     -0.17102581581690
  C   4.48747973302745     -1.56418728008645     -0.17959663954696
  C   5.19460720256010     -2.25573340470239      0.98084226662140
  C   5.84083598779977     -1.07503379461291      1.77759415171402
  C   5.45921313927379      0.22972050553695      1.00764354183436
  H   2.71452156585618      2.44874867506131     -1.26008073086629
  H   2.36810208861612      1.34267055860585      0.06402803576909
  H   3.75455669844226      2.42324973663307      0.15680305191080
  H   3.45865528281729      0.17245790062178     -1.91373689187496
  H   4.86064248790193      1.20265710431185     -1.71759797705186
  H   3.94085231344235     -2.12626243795042     -0.91892182440496
  H   4.49540776973865     -2.81783179537329      1.59357026626891
  H   5.94357999311472     -2.95927668209321      0.62745458261941
  H   5.46658467048112     -1.04624652528421      2.79405278576240
  H   6.91673821806086     -1.19021362549425      1.83421386056111
  H   6.33697824098501      0.76811145026921      0.66185687433046
  H   4.89553978386614      0.91405795744881      1.63380028317322
