38
Coordinates from ORCA-job dimer_007469/dimer_007469
  C   1.56265831509221      1.22931042330839     -1.15852532333699
  C   1.01184183446883      0.00433111595931     -0.40224341996790
  C   -0.23819291433249     -0.57761057664796     -1.11785100236971
  C   0.09661592750393     -1.06394235334489     -2.48705743876708
  N   0.36609237016310     -1.43450550718585     -3.52435840002627
  C   2.05164181923878     -1.11398539264998     -0.05436471750308
  C   1.57067218452603     -1.08796942170314      1.43429148680872
  C   0.74128487502247      0.20289224676282      1.12931218380613
  H   2.40583158250496      1.65011262869578     -0.62104896089222
  H   1.88909361602111      0.95051439850839     -2.15560570026915
  H   0.80059497489456      1.99639952830479     -1.24821976693905
  H   -0.64425999004361     -1.41079302185221     -0.54481767321642
  H   -1.01498946120542      0.18366157224732     -1.19460174746097
  H   1.93019363285009     -2.05090206994067     -0.58449776399754
  H   3.07155919616885     -0.77666884791169     -0.17823836411000
  H   0.95589553863089     -1.94087550950306      1.69769164495137
  H   2.34779761001754     -0.97756967562623      2.18077642785959
  H   1.20914916688477      1.10234193267413      1.51523390714655
  H   -0.29872667016331      0.18881085788368      1.43104333433455
  C   7.35546326585431      1.59419242157036      0.73921247616824
  C   6.54107605346146      0.34879598121729      0.33849104438315
  C   5.52502467447373     -0.03137259894067      1.45073545308735
  C   4.50193045775665      1.03598323879011      1.63889430837156
  N   3.72462466128423      1.85156696249694      1.76511502702703
  C   5.86519992180145      0.38240754477302     -1.07433214836452
  C   6.42313288229890     -1.05096252898998     -1.35982350231763
  C   7.35696351600005     -0.91201644661486     -0.11164673535585
  H   8.06898110451319      1.84103086326097     -0.03907540814999
  H   6.70169546576578      2.44845062038517      0.88714798542195
  H   7.90119556747612      1.41561371895363      1.66007453535243
  H   5.01314990403630     -0.95781925026484      1.19195384798926
  H   6.04487639390565     -0.19190383265284      2.39566399021852
  H   4.78892649769139      0.50257847260486     -1.09020135941527
  H   6.30662269824317      1.13535592961642     -1.71645344962969
  H   5.67396703560949     -1.82597495941111     -1.24337562828916
  H   6.91873638494747     -1.18931912207845     -2.31350996149063
  H   8.37631927198974     -0.66130166219191     -0.38038535686625
  H   7.37316963464723     -1.74388568050302      0.58188217580897
