36
Coordinates from ORCA-job dimer_009512/dimer_009512
  C   1.36699985041228      1.00653956645065     -1.12314311732448
  C   0.42995740216341      0.12653942973636     -0.26791152979338
  C   -0.52407572792533      1.00169225543905      0.60183417489654
  O   0.20918264558354      1.81324398930468      1.51201753990850
  C   -0.23272933276532     -1.06269600575963     -1.05046094107740
  C   0.67237017468792     -2.10183811303964     -0.30134112054912
  C   1.18532538238845     -0.93333889487156      0.59328067630020
  O   1.81028473312130     -0.85231077595845      1.61078774100108
  H   2.09169811657781      0.39156384455737     -1.64690668900070
  H   0.78492005499137      1.56330679344111     -1.85070136482158
  H   1.89493104128321      1.71336382167171     -0.49062344112206
  H   -1.09824270290797      1.67201355994074     -0.04516033053285
  H   -1.24044005322132      0.35341279251676      1.12209510361152
  H   0.79889765707094      1.24070014565445      2.04185312073891
  H   -1.28894527004648     -1.18099079847540     -0.83805813151215
  H   -0.09165963740710     -1.02569834882116     -2.12362469716437
  H   0.16338834564646     -2.90515470816882      0.22403863009105
  H   1.46208616012952     -2.52298180703185     -0.92009504474926
  C   4.74381470294143      0.99433734755130      0.92996080595456
  C   5.68186131100879      0.07601865591922      0.11410745059895
  C   4.96212869757722     -0.50550099655906     -1.13982471503173
  O   3.83702869296306     -1.29653647012525     -0.77516359241722
  C   7.11773719554663      0.66753570226595     -0.12194137662141
  C   7.73928753418955     -0.35059027969226      0.89717989189983
  C   6.34462229713269     -1.04394000442847      0.97440483651868
  O   5.93363779972896     -2.07588725384885      1.41795817186893
  H   5.23806993983257      1.34733832787448      1.82899039778851
  H   4.46100317400946      1.85531924073158      0.33261578342162
  H   3.84191213463392      0.45850896185984      1.21582508201299
  H   4.59982592876195      0.31531180545067     -1.76638302735871
  H   5.68211043051373     -1.08060453194924     -1.73590424831251
  H   4.10380821013304     -1.93014004498119     -0.07956946088709
  H   7.47752979774730      0.53096493422620     -1.13524607927204
  H   7.22314003542722      1.71073060485201      0.15014132881618
  H   8.54850915370577     -0.97550679865689      0.52900259229227
  H   8.04398812436357      0.09480805292378      1.84135557982782
