38
Coordinates from ORCA-job dimer_006483/dimer_006483
  C   1.99540348655854     -1.58054933078124      2.49141855604419
  C   2.99416624962437     -1.54694929478797      1.31597752926161
  N   2.83080670165833     -1.94300064833282      0.13594938669694
  O   4.17566736533148     -0.99715325297162      1.72902361580353
  C   5.21161587190320     -0.86850787356751      0.79043866809888
  C   5.01307502920471      0.25675529106282     -0.23969187769251
  C   6.60683288447089     -1.13157737799318      1.35686584008205
  C   5.96821416073892     -2.13815548730522      0.39667129261182
  H   2.41287973558849     -2.16305582945275      3.31031219318044
  H   1.82002310849072     -0.56851904626980      2.85116506917150
  H   1.05177384732910     -2.02014410409542      2.18291906165711
  H   1.90419528149738     -2.33786253527296     -0.04196707673104
  H   4.85943235816670      1.20447892613503      0.26880294592992
  H   5.89241423926415      0.33811827926523     -0.86980988672001
  H   4.15164120080848      0.04689917871207     -0.86642555542862
  H   7.42168182002083     -0.51779245497793      1.00362248701737
  H   6.67305556542660     -1.40685643729343      2.39942132849847
  H   5.62098148818062     -3.07307288592295      0.81091235024877
  H   6.34448322377460     -2.21284675962468     -0.61282416215940
  C   3.38119515934551     -3.54627220054996     -7.35349232885453
  C   3.63046844137887     -2.56782823778165     -6.18629158434845
  N   3.91329092181735     -1.34579908226287     -6.23297925544608
  O   3.50309417157005     -3.22747778602678     -4.99538000675147
  C   3.68824677862769     -2.49380642509075     -3.81208808732024
  C   2.53783591821416     -1.53840058655580     -3.45248786719421
  C   4.40297892027906     -3.25556764261874     -2.69738947621963
  C   5.12323442244348     -2.12409489745210     -3.43485635657843
  H   4.09203390161905     -4.36830354325983     -7.30083013189352
  H   2.37833049155299     -3.96112843358653     -7.27529518661837
  H   3.48659725573317     -3.04192626595231     -8.30902821510956
  H   3.98335767608599     -0.97473373366331     -7.18361240384057
  H   1.59404113824068     -2.07527286043095     -3.46032425773978
  H   2.70093844474402     -1.13683783966660     -2.45728019370681
  H   2.48868276737461     -0.72069646912039     -4.16549335220346
  H   4.07341918061251     -3.07530105380981     -1.68230979477573
  H   4.71434384403422     -4.26781941995020     -2.90846792141805
  H   5.90370951318071     -2.39228604411347     -4.13072219900213
  H   5.28420641610702     -1.18884173763328     -2.92176455954969
