38
Coordinates from ORCA-job dimer_010840/dimer_010840
  C   2.77054383407691      1.17606397850484      0.36569037471327
  N   2.99936499184169     -0.27019133054345      0.33484918884793
  C   3.56241989845744     -0.75233229483627     -0.92943734827494
  C   3.45011234451059     -2.30234363104611     -1.00892669406882
  C   4.11709508987498     -2.93307228380102      0.23572524278005
  O   4.96768018746462     -3.78631474784032      0.17418345716725
  C   3.60297484564831     -2.33327380249812      1.56526916946542
  C   3.71208439710939     -0.78185066179357      1.50828051872504
  H   3.69235004159499      1.76308587355090      0.31545278017292
  H   2.14014620512848      1.46265135741166     -0.47528817516314
  H   2.24827533587529      1.44295537685886      1.28372304742115
  H   3.00321796553624     -0.31324064079417     -1.75388798783137
  H   4.61089754058625     -0.46288120249703     -1.04314522793329
  H   2.39995867996988     -2.58431984691940     -1.01669994162328
  H   3.91959597871216     -2.68228659117487     -1.91086729269421
  H   2.55994309760516     -2.61444632951563      1.68933054943234
  H   4.17307676405435     -2.73489488281225      2.39734937709900
  H   4.76930167259717     -0.50148661678917      1.50037966646413
  H   3.26218023610065     -0.36098913638701      2.40590325558630
  C   6.78884777102709      1.21753471388577      0.03175634871178
  N   7.04419146460761     -0.22753362661627      0.01672752469525
  C   7.62352810557271     -0.68778915061329     -1.25140501978305
  C   7.67199436517539     -2.24136063896224     -1.31110241767215
  C   8.40956815576869     -2.79299601869115     -0.06825761627296
  O   9.33563937909607     -3.56247652625283     -0.12780050142038
  C   7.84060876077476     -2.23700402835658      1.25832900964700
  C   7.78471684406604     -0.68349671241070      1.19952450557474
  H   7.70224423725066      1.81658671057846     -0.03411336128868
  H   6.14817627259474      1.48654056751256     -0.80683671989265
  H   6.27318637557920      1.48914175578903      0.95171818369368
  H   7.00438161255866     -0.32024863456040     -2.06867398492954
  H   8.63053329651012     -0.28958209425867     -1.40828256579389
  H   6.65971007046332     -2.63989081031424     -1.30390432780857
  H   8.17119507212164     -2.57539478652296     -2.21530426510896
  H   6.83577856016944     -2.63440501926368      1.38435235749184
  H   8.45332319348441     -2.56775825458177      2.09109642157967
  H   8.80377807171617     -0.28565455137332      1.22177541966896
  H   7.27806220371800     -0.31255363906545      2.08962107462215
