38
Coordinates from ORCA-job dimer_001892/dimer_001892
  C   0.48765853561549      1.64678940121106     -0.53273736233417
  C   0.72810683986550      0.14322096262610     -0.26408840286709
  C   1.92097774224951     -0.45153307621020     -1.08823329286285
  O   2.58920131644793     -1.39661164571952     -0.25329502166775
  C   1.94509224279510     -1.50641159147428      1.01721835779512
  C   3.00692359098808     -1.75923012292464      2.12071310025655
  C   1.14825274217012     -0.17984109562059      1.19197762930280
  H   1.37413311257088      2.22189897237744     -0.28863498462514
  H   0.24529300291976      1.81735134255598     -1.57699954542506
  H   -0.33504556732028      2.01509184594633      0.07180100085319
  H   -0.17401989024251     -0.41023396306718     -0.50149621281256
  H   1.57198721622316     -0.93656372760730     -2.00574458629774
  H   2.62345385842460      0.33760157299322     -1.37401122929047
  H   1.24217725529944     -2.34759054714342      0.99907267426844
  H   3.69438164183638     -0.92310787771927      2.18035301389627
  H   2.52190807681619     -1.88324062583727      3.08403855686541
  H   3.57174186776996     -2.65884033658934      1.89579208959866
  H   1.79577642123618      0.59672993222598      1.58133916959258
  H   0.30160793556112     -0.28967260581899      1.85897884355560
  C   4.66750739396311      1.73076574559894      0.74157550724653
  C   5.35692341381989      0.50972223115146      0.09098064439971
  C   6.01188855477360      0.83431527158477     -1.29309599484233
  O   7.18925956462715      0.03661894493088     -1.40396546542935
  C   7.40644760784877     -0.73124789275245     -0.21854835686885
  C   8.92720996584698     -0.79029656750486      0.08895303109663
  C   6.56293729588209     -0.03818607017941      0.89286794258349
  H   5.37822055750827      2.53728194037622      0.88672736519421
  H   3.86104422894619      2.09628365621989      0.11491520049730
  H   4.25267323353556      1.46594091131204      1.70829340883256
  H   4.62944645292975     -0.28652412211077     -0.04065088623581
  H   5.33020529363757      0.61512479141680     -2.12096504144219
  H   6.28314574701386      1.89369503149956     -1.35267877532705
  H   7.03005220683585     -1.74965006751852     -0.37037497435128
  H   9.31660019052683      0.21105627718567      0.23852395756550
  H   9.10661802369242     -1.37472657963986      0.98594833238273
  H   9.45860087818374     -1.24882160379851     -0.73929856747069
  H   7.12578006251018      0.77228058401481      1.34054884883429
  H   6.26829786069133     -0.72727529899077      1.67499102453278
