36
Coordinates from ORCA-job dimer_009760/dimer_009760
  C   0.91113558904416      1.43216118961912      0.19928305237056
  O   0.93352038596980      0.04019440065668      0.49488988164107
  C   -0.31140185235421     -0.62955413301455      0.43129246540973
  C   -1.35406312003540     -0.04933432294612      1.44311358344748
  O   -0.85600018646420     -0.56550450266049     -0.88395652657390
  C   -0.72477009650306     -1.81255747560159     -1.55887009193112
  C   -0.23483302499809     -2.78441912572735     -0.47229667496314
  C   -0.01909995097269     -2.13190902364979      0.64046767726172
  H   1.94721639640212      1.73577751586745      0.01277023040530
  H   0.31588085150603      1.65090071961900     -0.69523378386343
  H   0.51611247089617      2.02105489669321      1.03552665055937
  H   -1.65321260526933      0.95024168100070      1.14555201992200
  H   -2.23405237250577     -0.68438205986433      1.45882814608802
  H   -0.92044577520726     -0.01412684621852      2.43793408772392
  H   -1.69573494597621     -2.11146843989578     -1.97554101553110
  H   -0.01041119395408     -1.74409270949520     -2.39114862258620
  H   -0.09905959298536     -3.84021157003763     -0.65623826489372
  H   0.33918916789447     -2.51377602746931      1.58442026054472
  C   6.57540609975894      0.45990075803182     -0.34652624410988
  O   5.79690759264739     -0.72803149444315     -0.40593355544944
  C   4.41483065105113     -0.57435176543540     -0.11939723653877
  C   4.15841033338988     -0.05137162941594      1.33113885706305
  O   3.80340120992874      0.30841199745510     -1.05402611278119
  C   3.03220987644700     -0.41085625149465     -2.01149014572057
  C   3.00091699138632     -1.84969469751244     -1.47151889770374
  C   3.75385364693704     -1.93957595044688     -0.40632241929202
  H   7.55460971932383      0.22692834149555     -0.77589534879425
  H   6.12451458016427      1.27522327089731     -0.92574222300950
  H   6.72555017661276      0.80489151859062      0.68337039289543
  H   4.47033803465836      0.98297837377556      1.42322246438417
  H   3.09441358647854     -0.11803938727948      1.54250386393533
  H   4.70999391398421     -0.65817746786745      2.04212640417170
  H   2.02677602007361      0.02373277062565     -2.07958084474692
  H   3.49294908241617     -0.36435188203958     -3.00862407987023
  H   2.42964421279063     -2.63455990768894     -1.94299289198331
  H   3.95342912746370     -2.80563476412312      0.20552294251887
