42
Coordinates from ORCA-job dimer_009675/dimer_009675
  C   -0.64388976305901      0.91339525038753      2.05901351939416
  C   -0.45445410270941     -0.52340914055781      1.50292832161390
  C   -0.30991137136759     -0.52796675797709     -0.02802767231240
  C   -1.53147316540153      0.01699590202916     -0.78828255186709
  N   1.03398102544483     -0.20542252890153     -0.54636903680436
  C   0.52612255944098     -1.58444780037517     -0.73367254840296
  C   1.25347675174657     -2.73024206854491      0.00776425284515
  O   2.36553106826288     -3.22875188366725     -0.73098780217418
  H   -0.64263488548215      0.90044470107436      3.14419396429563
  H   0.16548697365364      1.55279599712478      1.72215946032978
  H   -1.58246034129137      1.34304214977792      1.72865863888465
  H   0.43184208301958     -0.95665092566244      1.94985399565328
  H   -1.29928924551852     -1.14599486937187      1.78291500423098
  H   -1.69597511829249      1.06335396566287     -0.55128683241791
  H   -1.39441931426724     -0.07408051231230     -1.86049391209565
  H   -2.42175186678452     -0.53933930476203     -0.51032070911125
  H   1.00874358546573      0.34515253761599     -1.40593363120569
  H   0.19438989690619     -1.86684868376627     -1.72656398166546
  H   1.55832382431648     -2.38661519414448      1.00213793465134
  H   0.55401546788495     -3.56125233097328      0.14866088989933
  H   2.98364698883628     -2.47792622598242     -0.90205762494943
  C   6.23571744287178      0.12528128584624     -2.27132686375513
  C   6.32683604716774     -0.73233562857884     -0.98051611788803
  C   5.21077561194326     -0.38103626469072      0.01740703119878
  C   5.22593973174083      1.07771650352909      0.50762796521755
  N   3.90259004882048     -1.00837878779617     -0.22363964657662
  C   4.65304127273204     -1.42142039811904      0.97949565976433
  C   5.15676483697612     -2.88684319475631      1.04932685263028
  O   4.12664580189623     -3.79373219046602      1.42403821028638
  H   6.96569089931263     -0.21168434301103     -3.00014556410671
  H   5.24693168568912      0.03464192165443     -2.70883290410017
  H   6.42585331632180      1.17173077617571     -2.06319518367089
  H   6.25086324830425     -1.77788536756716     -1.25230718271625
  H   7.29171488222820     -0.58667475567043     -0.50373847972098
  H   5.05680666123034      1.76173735028649     -0.31766505360764
  H   4.45349954198401      1.24267636839564      1.25115019897297
  H   6.18743301988218      1.31246898990508      0.95416540558366
  H   3.09325102116868     -0.40782628525671     -0.03767504908650
  H   4.30909522305487     -1.04535929087510      1.93618427885953
  H   5.61144536616017     -3.16612420883455      0.09355457904068
  H   5.93998651443257     -2.94840191436133      1.81214349450352
  H   3.47917577527743     -3.85570484248271      0.68778869037942
