44
Coordinates from ORCA-job dimer_007640/dimer_007640
  C   1.69377797092623      1.37672052196946     -2.50681886608735
  C   1.05462047706438      0.61065138264722     -1.31774255376995
  C   -0.46064746140286      0.40019108869400     -1.56263283890422
  C   1.80791027092566     -0.73248650497822     -1.12473698313176
  C   1.29891768407434     -1.73716233828436     -0.03749665058750
  C   1.13800597322460     -2.73635218989543     -1.23372636864521
  C   -0.27861464869171     -3.30488217095757     -1.50213160459973
  O   1.53303615617411     -1.70223537307300     -2.17007820688378
  H   2.75037176274049      1.54563055060359     -2.32524087825993
  H   1.58821121075066      0.79733542338088     -3.41782292260411
  H   1.20772025532674      2.33516569527216     -2.65108111359949
  H   1.19357836979691      1.19157218136487     -0.41038114014792
  H   -0.60911105832394     -0.21779961531833     -2.44134946099726
  H   -0.93709193317767     -0.08041992832054     -0.71697407177400
  H   -0.94888757924359      1.35416240770158     -1.72758451622841
  H   2.88113286653052     -0.52187631950176     -1.04867156146870
  H   2.02630370998366     -2.01803560427556      0.71518449757210
  H   0.37049940314333     -1.46157357955523      0.44544477601391
  H   1.86605306776407     -3.55384821756492     -1.21354024361832
  H   -1.01353528925917     -2.50778885251419     -1.51127735108702
  H   -0.30242034143226     -3.80983333177372     -2.46330362662003
  H   -0.54578846364461     -4.01828532334114     -0.72815632135797
  C   5.10616729388449     -0.99553770150958      1.56179735388267
  C   5.93125532438193     -1.58916188076299      0.38771993875161
  C   5.16722922848082     -2.77080902124981     -0.26107680673209
  C   6.23746251638307     -0.45565578464932     -0.62980764848960
  C   6.89475933953007     -0.81714109689810     -2.00416046660828
  C   5.60258470633845     -0.18868296134143     -2.63252133024560
  C   4.72444246237166     -1.10569601380702     -3.52132478655356
  O   5.05530918524804      0.03663112419314     -1.30692819651007
  H   5.65431610844730     -0.20076366136063      2.05588799786059
  H   4.17383960647100     -0.58546413975740      1.18815536959050
  H   4.87743636408489     -1.76211569955540      2.29390629835194
  H   6.88219137631272     -1.94914759909368      0.77038394694237
  H   4.24288069073052     -2.41965098927735     -0.70440171451895
  H   5.75790166009384     -3.25130584481551     -1.03142499295248
  H   4.92601273276094     -3.51434823278683      0.49036457711952
  H   6.75976202076989      0.35239307868461     -0.10856338931325
  H   7.82228986668101     -0.30150658563803     -2.22466807784291
  H   7.01903078140151     -1.87556353001189     -2.19275089566636
  H   5.78928021553784      0.75939713526245     -3.14759902682060
  H   4.54927898234332     -2.05949004142594     -3.03692626760469
  H   3.76120394431248     -0.63946487671874     -3.70941672398771
  H   5.22011725118333     -1.28072842276003     -4.47162561686605
