38
Coordinates from ORCA-job dimer_006189/dimer_006189
  C   -1.39594887231541     -0.55489900500637     -0.40971560306287
  C   0.02711886226731     -0.42588080245081      0.18032833135966
  C   0.00280591843157     -0.66860633963850      1.71157491158712
  C   1.03439256495601     -1.42084788160189     -0.48449809287132
  N   2.31103505979161     -0.73825201014309     -0.36162790299449
  C   2.20608813282546      0.62418131384681     -0.17580977415051
  O   3.11943177371330      1.41494100665840     -0.08291706348095
  C   0.68154356991328      0.94875871471554     -0.11620557105880
  H   -1.38489432946076     -0.37938720222762     -1.47968873311760
  H   -1.79250298229104     -1.54821516641438     -0.22867124906470
  H   -2.06306212719239      0.16663010456867      0.04955398171766
  H   -0.39994846114379     -1.65027991344308      1.93370305580019
  H   1.00569712863964     -0.60785011026843      2.12024477644675
  H   -0.61525823276338      0.07449836566150      2.20281307011910
  H   1.04227103430725     -2.38173451964347      0.02868448449681
  H   0.76506656551086     -1.60200596630898     -1.52777139512223
  H   3.20103128814019     -1.20845797121163     -0.52090286677736
  H   0.37270465725046      1.33538181285804     -1.08353946972273
  H   0.46589196020802      1.70037937637199      0.63391242452194
  C   7.89782718981107      1.21867363450193      1.34647197606192
  C   7.25200762154186      0.53731731811186      0.11850575814186
  C   7.02255133902868      1.56924831929903     -1.01586748885908
  C   8.12077254986798     -0.64704961279604     -0.42281594923328
  N   7.12902265558480     -1.53914093286643     -1.00462535422218
  C   5.83966062731104     -1.33550808038155     -0.55239866959275
  O   4.86512008293910     -1.97518118316630     -0.88797704387452
  C   5.90650745445483     -0.15643021801222      0.45813890769517
  H   8.05248169003427      0.50372986306094      2.14685176446706
  H   8.85638980525832      1.65160708228140      1.08068970359874
  H   7.25514488158515      2.01222729888993      1.71352790374872
  H   7.95798951294354      2.03724062984327     -1.30074016046415
  H   6.59691357601513      1.08643532281649     -1.88876286182136
  H   6.33436129643303      2.34017068918442     -0.68505639689525
  H   8.83990180679856     -0.30561209910968     -1.16674491990926
  H   8.67460977528125     -1.12718667148724      0.38724299379227
  H   7.35988593709675     -2.29324047240562     -1.63160518751419
  H   5.91133458834253     -0.56729860463243      1.46415888167671
  H   5.04467209888218      0.50224591054565      0.35608682857793
