36
Coordinates from ORCA-job dimer_009496/dimer_009496
  C   0.62050460036728      1.04781800816593      2.29513579525926
  N   0.18493441927356      0.63713940180159      0.96687711862325
  C   -0.98291807893197     -0.22943884484545      0.72437303674235
  C   -0.23138592508997     -0.80639820044716     -0.52375112765649
  C   1.05741810914187     -0.09612152085584      0.03903748673308
  C   1.87616714737434      0.79321829326039     -0.92901857935896
  C   1.96249830737234     -1.07955571221119      0.72765950989100
  N   2.63662450086326     -1.82081433787138      1.25786672896669
  H   1.54512327453989      1.62314708545043      2.20836040073765
  H   -0.14189392163698      1.68610711656344      2.74282073180380
  H   0.80571660636383      0.20503135134639      2.96818910640808
  H   -1.16081749858493     -0.97926292397615      1.49933358903167
  H   -1.91307119862420      0.30494553861054      0.52936775893786
  H   -0.18332755493771     -1.88597735017276     -0.61151487854473
  H   -0.55563718596516     -0.37332543245864     -1.46356107325815
  H   1.20219240021174      1.48194371446614     -1.42796235746033
  H   2.61525252058400      1.36404347433892     -0.37210091700314
  H   2.38269616311339      0.18477008767870     -1.67207697990888
  C   6.21214499639416     -0.09730706874647     -0.89250273294573
  N   6.52874798625009     -0.82503070612215      0.32831588153819
  C   5.98770050633569     -2.16404685631871      0.63250159739527
  C   5.94659896392540     -1.75636600200915      2.14420609955364
  C   6.24227042555679     -0.28464692380515      1.66630932580250
  C   7.43020859113066      0.45672032356852      2.33171437627946
  C   5.01629622318717      0.58210083639503      1.71111365396153
  N   4.09799535553353      1.24655391678333      1.72475014167299
  H   6.72977207174830      0.86273150681746     -0.88919762453465
  H   6.56711336084139     -0.66800471213149     -1.75140229929153
  H   5.14154295830834      0.09070340092782     -1.02197916507889
  H   4.99317483634699     -2.35936937727219      0.22401904563624
  H   6.65184739405104     -2.98735064752046      0.36834079911340
  H   4.99685232693683     -1.90760443921872      2.64783243720640
  H   6.75684399326484     -2.16611371487180      2.73689955774506
  H   8.30856521381319     -0.17950058782133      2.29084936660896
  H   7.64311664298662      1.38169430855503      1.80400862114962
  H   7.20291119895401      0.68881802194658      3.36821119624345
