48
Coordinates from ORCA-job dimer_010859/dimer_010859
  C   0.54688893574352      1.70420652118326      0.38004269303868
  C   0.31752379297759      0.17103534617449      0.37362373940188
  C   0.38904954542421     -0.38889074331318     -1.06972984705901
  C   0.18620150930926     -1.92359792597743     -1.08455335571081
  C   1.22042969167699     -2.65119669134933     -0.18547211643734
  C   2.65040781916202     -2.56089372725668     -0.77803290538928
  C   1.15911955050402     -2.07793903373948      1.25523778367032
  C   1.35466594726475     -0.54256820136103      1.27679346171527
  H   1.52908363888908      1.93904627091136     -0.01426662403910
  H   -0.19388006435762      2.20641205588183     -0.23238226685894
  H   0.48226429436131      2.09804047339375      1.38836879308156
  H   -0.67207840943174     -0.03434195475655      0.76669671515475
  H   -0.37124032548134      0.08559184315180     -1.67986047145595
  H   1.34820549634425     -0.13673509426494     -1.50491849443668
  H   -0.81205836676642     -2.15066635079310     -0.72713341937927
  H   0.25814527386454     -2.29610910220684     -2.10022393445197
  H   0.94894159601539     -3.70061310403090     -0.14083194372185
  H   2.98028159239286     -1.53375057947548     -0.85583821335053
  H   3.35594813778640     -3.09456782736104     -0.15107485160861
  H   2.67669665463007     -2.99803585085886     -1.77007006653343
  H   0.19316180672298     -2.31650012716797      1.68636247900944
  H   1.91399965932294     -2.55416737582777      1.87090729494905
  H   2.35174703948521     -0.29169927301449      0.94060445006095
  H   1.26196640446001     -0.17763998311883      2.29339674085619
  C   4.50710478009265      2.76806931798968     -0.27692003357122
  C   4.77887393173393      1.24764578150694     -0.14310363240437
  C   5.93643524844041      0.81143420486073     -1.07636434895320
  C   6.24131952342109     -0.69899146033697     -0.92664268742812
  C   6.56878395036244     -1.08224869385729      0.54063526252450
  C   7.92987082138303     -0.49434254206098      0.99508585557113
  C   5.41253258991542     -0.63331410627587      1.47266332751076
  C   5.10283841507515      0.87629127049592      1.32622160146814
  H   5.39041454758678      3.33394916377266     -0.00311899062670
  H   4.24302299017930      3.02347820915912     -1.29731513400487
  H   3.69479183487895      3.07200670916067      0.37412441985116
  H   3.88489903714006      0.71090928201289     -0.43877670057258
  H   5.67335702300076      1.02995901872152     -2.10524251115802
  H   6.82034944890459      1.39260764160854     -0.84462209752621
  H   5.37849084762027     -1.26856621938186     -1.25273105974392
  H   7.07037109336368     -0.97238070388727     -1.56952367199874
  H   6.64280673576915     -2.16320203455180      0.59563134748564
  H   7.92235754155430      0.58746220324492      0.96752788108311
  H   8.15529869685441     -0.80366988529279      2.00960184894423
  H   8.72704448678575     -0.84213611383618      0.34758030376736
  H   4.52315119020600     -1.20248870436698      1.22799152208626
  H   5.66560195860970     -0.85848120195456      2.50253154683236
  H   5.94834868982283      1.46250373263654      1.66413519099332
  H   4.26146445299836      1.13816086980989      1.95807615136463
