38
Coordinates from ORCA-job dimer_003018/dimer_003018
  C   2.68101561988358      0.73500519384303      0.47514471234175
  O   1.86422620447464     -0.34436967901047      0.04862772090729
  C   1.14307060041503     -0.12037033181354     -1.15397293236999
  C   2.07697325428856     -0.01261934167672     -2.40161877909220
  C   0.16905500071754     -1.29960237656197     -1.33241914029580
  C   0.64013016296246     -2.70184160324465     -0.97882726916911
  C   -0.39762008367438     -1.99993108904781     -0.10610334313889
  H   3.56494024801122      0.86294579363624     -0.16308228857756
  H   2.12794131351577      1.68197454964904      0.50351655138100
  H   3.02218417141535      0.50593352543411      1.48919910556297
  H   0.55911815904870      0.80469592126404     -1.07080486648036
  H   2.66632542054060     -0.91815345471197     -2.49666222836737
  H   1.47636535113531      0.10787593260531     -3.29673506728184
  H   2.75058658953828      0.83242736234980     -2.32158873375590
  H   -0.47900624584162     -1.19681186121749     -2.18884299616484
  H   0.31851758230079     -3.52288447893288     -1.60098141365876
  H   1.63949036462624     -2.80359106625819     -0.58303030678184
  H   -0.07533192762252     -1.64431965179392      0.86087298982490
  H   -1.41897763079327     -2.34692965169011     -0.14197031397300
  C   5.91847256264839      1.61437489818934     -1.74896471874233
  O   5.55173447798975      0.27781832410275     -1.44886400924665
  C   6.54907070069074     -0.48453018230921     -0.78185594458761
  C   6.70173663712715     -0.06217871453890      0.71439096846200
  C   6.15126822139907     -1.96933116408042     -0.87009509257570
  C   4.69717625187496     -2.37163707131179     -0.67708580098681
  C   5.34051904921944     -2.46580918626739     -2.05836771753246
  H   6.03404364407652      2.23112457776905     -0.84918721321074
  H   6.85434563717371      1.66534531166997     -2.31993494372464
  H   5.12002931186567      2.04766235368416     -2.35938966753976
  H   7.51505927802770     -0.35625324789198     -1.28533436361040
  H   5.74938260860600     -0.17330876475786      1.22155168805801
  H   7.43021757846154     -0.70064535518045      1.20290207089751
  H   7.03289541335866      0.96599355647732      0.80533852201345
  H   6.90219286952381     -2.63357648294779     -0.47112591834239
  H   4.49228257894015     -3.28931170091263     -0.14707172916848
  H   3.96924323406619     -1.59120555495337     -0.50783035021445
  H   5.04664101884054     -1.73459669834779     -2.79595968237597
  H   5.56392967116714     -3.44343022421475     -2.45755679748288
