36
Coordinates from ORCA-job dimer_006482/dimer_006482
  O   -1.18286054806218      1.26619388575017     -1.88636624827611
  C   -0.11946444712773      0.80099344051929     -1.05482844079103
  C   -0.80152306680411      0.05374137954455      0.13454566283048
  O   -1.75820468241522      0.88327911456910      0.75143737757354
  C   -1.25619841018090     -1.39833486228781     -0.27810953091681
  C   0.04508945885129     -1.96761166504487      0.39310685265148
  O   1.02549937531819     -2.25634318562550     -0.58267652340729
  C   0.24055449442122     -0.57589421352358      1.11800535720586
  H   -0.82313251803660      1.76163886568402     -2.64447362829364
  H   0.55093110324817      0.10883217285971     -1.57917599150597
  H   0.47909584966207      1.63267434652249     -0.66238728587366
  H   -2.28058672227428      1.31496071918995      0.04703914998584
  H   -2.15643023274530     -1.69963187149332      0.24604371122076
  H   -1.36185523542695     -1.59268290004547     -1.33881099642910
  H   -0.11929038700262     -2.81018331768926      1.07262626854001
  H   1.87854283259234     -2.45541276327475     -0.13829328700085
  H   1.23857353518636     -0.15533649216299      1.10396072223143
  H   -0.13753544537013     -0.58102495295299      2.13481527681573
  O   5.80138245392236     -1.27685009543217      1.50151623146497
  C   5.89045104905531     -1.81110885746189      0.18125608303505
  C   4.43123762781597     -1.80181483120291     -0.36957781322138
  O   3.57053061262865     -2.43365864783251      0.55377607717043
  C   4.00276172765896     -0.37652818837279     -0.88691594457998
  C   4.28564017750687     -0.85242471762896     -2.35486427211098
  O   5.53823604861881     -0.35313098028753     -2.79992706380832
  C   4.33144460816759     -2.34322808141413     -1.83513040811584
  H   6.68290361809669     -1.24971382050494      1.91620677559280
  H   6.53117697931805     -1.21111615966959     -0.47748966968243
  H   6.26826881806559     -2.84165425452424      0.18627876498534
  H   3.82977501496954     -2.15638364777191      1.45526035838063
  H   2.94845626145219     -0.18531315705705     -0.71827052539352
  H   4.59442567150723      0.46395507232080     -0.54205094729453
  H   3.48433989586341     -0.64352073282478     -3.07096548393852
  H   5.73565227018467     -0.71379865763217     -3.68466090723724
  H   5.15960720707172     -2.95161074728210     -2.17959235861684
  H   3.39585284726250     -2.86779492295975     -2.00673894719025
