36
Coordinates from ORCA-job dimer_006188/dimer_006188
  C   1.73511411265156     -1.78315409149347     -1.18687667172447
  C   1.53394956780791     -0.49625891359072     -0.33343373629113
  C   1.11347004857932      0.70152424567439     -1.22448167224756
  C   0.53098248285298     -0.74808210016250      0.84595723359784
  C   1.44673015890392     -1.21436380966215      2.00086432266032
  C   2.83556668463892     -0.62029623693682      1.60110979572175
  O   3.83039529771136     -0.53447823586254      2.26622216786263
  O   2.77627411770634     -0.17366070913827      0.30673293891475
  H   2.01585653545675     -2.62171284300583     -0.55815011829640
  H   0.81521488265592     -2.03040454204846     -1.70675524313499
  H   2.51838926755386     -1.62090593599031     -1.92088417106280
  H   0.14077858888586      0.50626332976362     -1.66547289313091
  H   1.05546412182706      1.60899282691018     -0.63163395456971
  H   1.83497216901902      0.84931808698481     -2.02202034252654
  H   0.02560158259977      0.17488719348198      1.10904456077075
  H   -0.21821381914732     -1.48363229240501      0.57737466732047
  H   1.14503522007956     -0.84616513049212      2.97788411960697
  H   1.52666913122759     -2.29833023429177      2.05795353533724
  C   5.83230563801380     -1.60197555174399     -0.74791681270124
  C   6.24706046181183     -0.13288793967106     -1.05141328261965
  C   5.27122371311031      0.51822696045466     -2.06413799863299
  C   6.37924546673026      0.69991709344621      0.26906377090964
  C   7.85439148853726      0.48073883299656      0.67467230327845
  C   8.53657066302573      0.12524113245324     -0.68767063877655
  O   9.70778549173091      0.08079544357087     -0.94459231406322
  O   7.56514079153343     -0.13465169502451     -1.61916467760065
  H   6.49657354754915     -2.04384139921060     -0.01318054094223
  H   4.82049988425745     -1.61842887794224     -0.35866956011076
  H   5.87421504326970     -2.19333634109400     -1.65662622036893
  H   4.28777443194720      0.59269395724566     -1.60984286037885
  H   5.61555949209110      1.51193543643610     -2.33084594041134
  H   5.20595427789552     -0.08285769920660     -2.96502123658367
  H   6.19287352913911      1.74820113044464      0.06574727481236
  H   5.67163942110386      0.36371018050052      1.02164931062686
  H   8.32489284976035      1.35411171232006      1.11669304645697
  H   7.97472245248145     -0.35314436871040      1.36304025129767
