36
Coordinates from ORCA-job dimer_004158/dimer_004158
  C   3.30987313769056      0.51413213038363     -2.71812179943606
  C   2.31374565151766     -0.09517996697964     -1.69695509179218
  C   2.64226538797260     -1.58600082613605     -1.43172856514696
  N   3.91065311643567     -1.82417331699660     -0.69534355320396
  C   3.27100563034633     -2.64857389827670      0.36235090342621
  C   1.91235219172977     -2.26543539982302     -0.25762730525186
  N   0.69196282711057     -2.37178731318799      0.02013720553780
  O   0.43945897014636     -3.04183573094551      1.19647548595050
  H   4.32576041844493      0.41713171421222     -2.35145024445051
  H   3.24376366142134      0.00196116996356     -3.67219624601536
  H   3.10053141588459      1.56640243524673     -2.88036641201041
  H   2.36772052583600      0.44670941516613     -0.75848125551981
  H   1.29514871859973     -0.01633024007937     -2.06641990750804
  H   2.54805450603251     -2.15301390369773     -2.36151036311928
  H   4.70012335629182     -2.20448438777318     -1.20559693658253
  H   3.47873458171247     -3.72220611391337      0.32564178991029
  H   3.44188952603103     -2.29680941574518      1.38289421655047
  H   -0.54029709154578     -3.04122987649809      1.28883615153150
  C   7.32537123609494     -0.49711832223003      1.89314102086971
  C   7.20579642602831     -1.28916893505956      0.56562340073380
  C   6.81641404973922     -0.34456386007661     -0.59870588571049
  N   7.86284106798590      0.64767379053198     -0.97209894551470
  C   7.88838666228457      0.24252380533867     -2.40352712988105
  C   6.94044377418293     -0.91178505287762     -2.02535802556638
  N   6.45153160605550     -1.93444397597604     -2.56713737709740
  O   6.82392537450900     -2.10804691203375     -3.88159558763441
  H   8.07428107380884      0.28222606445386      1.79502696115242
  H   6.37766368251678     -0.03467628867083      2.14839414226118
  H   7.61667782867881     -1.15234297067062      2.70759740576437
  H   8.15222916133528     -1.76638565835311      0.33309201037815
  H   6.45118794605458     -2.06492710030332      0.65572030051513
  H   5.82645104288591      0.07949090248906     -0.40657167218999
  H   7.69269726335345      1.62288915349900     -0.75853176668544
  H   7.44800318515131      0.95122223488269     -3.11145622636621
  H   8.87244638426919     -0.05481779212352     -2.77511109098507
  H   6.39766427940696     -2.94836964874000     -4.16582555491340
