44
Coordinates from ORCA-job dimer_006560/dimer_006560
  C   1.77192513528266      1.37298135360919      0.13463110745728
  C   1.42896257677668     -0.11522103427376     -0.14640281811666
  C   1.85213584852156     -0.99109324777957      1.07563312804942
  O   0.01422894069349     -0.16898950964473     -0.34145906269157
  C   2.17919451713454     -0.62896873449417     -1.42039997677114
  C   1.80841980668948      0.16505534926296     -2.67472965734070
  C   2.66903291982217      1.34521154465066     -3.10726997022407
  C   2.68372866594376      0.05312473137381     -3.91954719180261
  H   2.84371397376930      1.49082402823802      0.24752282971558
  H   1.43037091181865      1.99641108607963     -0.68308854532251
  H   1.28227828345977      1.69603971502105      1.04656756010100
  H   1.33505010532511     -0.65919243111754      1.96896595383017
  H   1.61288459850712     -2.03419950595815      0.90170875876611
  H   2.92310962839618     -0.90393218901818      1.23248592958213
  H   -0.25177803739853     -1.09573588562463     -0.48459177573270
  H   3.24778807180970     -0.57106309183983     -1.23733942289098
  H   1.93306652608697     -1.67564454849142     -1.56972635036216
  H   0.74509590282386      0.26103886335774     -2.83709848169598
  H   2.18251237042811      2.20992039942834     -3.53158789906330
  H   3.53679707718360      1.57868945151384     -2.51153154191980
  H   3.56180671075676     -0.57050043423670     -3.86653133990337
  H   2.20511432443103      0.05304950160347     -4.88662041352656
  C   5.92690936040511      1.51043512905238     -0.05665846137844
  C   6.42166100417724      0.04610247433599      0.09590555592583
  C   7.33158495829719     -0.07717865481740      1.35991570802970
  O   5.24936822862434     -0.75617446690385      0.24703794522653
  C   7.22846528502258     -0.40777084512393     -1.16678919174190
  C   6.39212929578926     -0.33975870778215     -2.44640213465037
  C   6.48230152631966      0.88264744338876     -3.35221489444014
  C   7.08803632698171     -0.44434734559675     -3.79965514442092
  H   6.76719402025826      2.17685266996581     -0.21541295262606
  H   5.25239800553488      1.59093276483345     -0.90063618642467
  H   5.40099711678806      1.81617126137501      0.84144160659081
  H   6.77568773218074      0.20806354406566      2.24671728635353
  H   7.68411526264253     -1.09571771597338      1.48232574653067
  H   8.19417392481709      0.57328421753611      1.26633279442056
  H   5.51220883472314     -1.68663619844161      0.37167113719107
  H   8.11076554502413      0.21410382129617     -1.26771392485738
  H   7.57181595094979     -1.42625047605493     -1.01074344638222
  H   5.42346897698455     -0.80771268407742     -2.36185023954231
  H   5.58462796117599      1.22431408445136     -3.84534475603544
  H   7.15467927057017      1.67589276467311     -3.06514017423250
  H   8.16316294747629     -0.53508136475360     -3.81009533759989
  H   6.59462760699436     -0.98885912710883     -4.59024775607379
