38
Coordinates from ORCA-job dimer_004113/dimer_004113
  C   0.90452570928837     -1.11305011614706      1.30945291238703
  C   2.39537236506743     -0.76214807601592      1.12728151764548
  C   2.90180980997237     -0.73482587967950     -0.36176547318404
  C   3.26653062443523      0.74229981766818     -0.16521954674983
  N   3.73349029821747      1.66658548377243     -0.87954873997379
  O   4.01298778170267      1.27967462024598     -2.17244028200993
  C   2.79940857931294      0.75548953467363      1.29736788556171
  C   1.68737752876516      1.77448219053344      1.63138407753768
  H   0.28108424747406     -0.51788964724219      0.65261418441969
  H   0.73755319465855     -2.16020438967759      1.07672248680682
  H   0.58981161275074     -0.93740632269775      2.33305457907920
  H   2.99800872824558     -1.40806905004061      1.75547354749165
  H   3.74528559405758     -1.38410251765828     -0.57864243781470
  H   2.13210932090203     -0.90813907363848     -1.10855098983838
  H   4.36475038545370      2.08500349181444     -2.61431261205221
  H   3.62181639511911      0.88131394235956      1.99550497658234
  H   0.87179286544473      1.71142354939041      0.92052968761296
  H   1.29370057058426      1.59612984043937      2.62700183663789
  H   2.09177305250926      2.78176824326708      1.59475066420978
  C   7.34299481631417      1.38238354612044     -1.12292612529528
  C   6.81225868334259      0.02901752960507     -0.60651223702986
  C   7.92320023189233     -1.06496659494848     -0.39128278695195
  C   7.64237333162914     -0.98673785911384      1.11563514144201
  N   8.15812164501592     -1.44660566885448      2.16689689111646
  O   9.24275514459351     -2.26711206695497      1.94385650902179
  C   6.45848423211745     -0.02693541000609      0.93060201356393
  C   6.49115291753426      1.28366473050244      1.74461095342139
  H   8.21428185160756      1.69769009590016     -0.56073658751244
  H   7.62656802429553      1.29755935994184     -2.16705998593839
  H   6.58175278219184      2.15006193478878     -1.03317354941979
  H   5.99424794047316     -0.30191166899645     -1.23602247351820
  H   7.69896683993367     -2.03383872838430     -0.82944440702217
  H   8.92766946474979     -0.77568175495680     -0.68546789673090
  H   9.54418389054027     -2.54499880002532      2.83801315532877
  H   5.51289871139072     -0.53321972528641      1.09839859287010
  H   7.45647843872809      1.76894909376214      1.66278742476298
  H   5.72838280566702      1.96860394275619      1.38687598549844
  H   6.30734158402121      1.07211840278305      2.79355310804369
