38
Coordinates from ORCA-job dimer_004066/dimer_004066
  C   1.67595372696496      1.51752680065914     -0.60122939830508
  C   1.95191488383219      0.19940418821826     -1.37161764420995
  C   3.43833556264166     -0.20675851316887     -1.28405535668078
  C   3.93005850060757     -0.67135161072868      0.13622726850767
  C   4.33169686983475     -2.01251799925135     -0.49119470163605
  C   3.79711009830927     -1.61962381128299     -1.87616477317495
  N   4.90386823470511     -3.01355768845114      0.01324222534931
  O   5.10187009953198     -4.04544624419716     -0.87657677845802
  H   1.94238343915663      1.41127903384159      0.44486064967933
  H   2.25989648790185      2.33149996376398     -1.01761354137042
  H   0.62621158415603      1.78619391378557     -0.65968140866084
  H   1.33818637889621     -0.59827441487106     -0.96609428044567
  H   1.67516531414985      0.31885264284021     -2.41490362200561
  H   4.05854485970492      0.58151577323361     -1.69380691854897
  H   4.74623143925052     -0.09763951560628      0.56422282747006
  H   3.13782437524069     -0.75152195306463      0.87506486137624
  H   2.93870494146656     -2.20190667147629     -2.19989134028056
  H   4.53759070579053     -1.62452024970283     -2.67090108433168
  H   5.56679809602367     -4.74517463813612     -0.36468897504629
  C   7.65192223854365      0.87184607966836      0.69775436952893
  C   7.73286341986859     -0.59985020156032      0.21306833693063
  C   7.46978726110678     -0.71615917453481     -1.30312345504072
  C   8.58848048368618     -0.10850941322095     -2.22836073414238
  C   8.79405958903288     -1.50848612966786     -2.82313433700716
  C   7.72302424360298     -2.14006639019957     -1.92097227149693
  N   9.57894626989640     -1.90555708426381     -3.72357852078312
  O   9.47931129032118     -3.25279984974749     -3.99386034833837
  H   8.39484988003775      1.48120269599480      0.19458891778879
  H   6.67493123918180      1.29245634602287      0.48660757776033
  H   7.82687544598630      0.93615668642221      1.76676754842766
  H   8.71505477360493     -1.00296000089327      0.43630077435409
  H   7.00771155665741     -1.20843733176969      0.74616214250590
  H   6.48716290029981     -0.32787094284231     -1.53753540747820
  H   8.25069665013855      0.64309370141915     -2.93613566973413
  H   9.45175736515238      0.27932204791072     -1.69572223823642
  H   8.10981906440764     -2.87326008720961     -1.21923012773485
  H   6.88206982875711     -2.58201337585366     -2.44922501184619
  H   10.13458290155075     -3.42162658207939     -4.70791155468519
