40
Coordinates from ORCA-job dimer_006155/dimer_006155
  C   2.35230015980091      0.76380189440373     -0.21688139853421
  C   2.99231469957332      0.07858712357743      1.02461125014147
  O   2.83477427939456      0.87025489099128      2.18949277574768
  C   2.60671437213593     -1.44668920049800      1.17164258215552
  C   4.05454842825487     -1.84637858878050      0.73211784808634
  C   4.12760770792298     -2.48871390844162     -0.68789172431663
  O   5.44816129768274     -2.81827362490153     -1.08830723765818
  C   4.48844218397904     -0.34470476452305      0.81445827629453
  H   2.52263823692426      0.17083331008914     -1.10795786688456
  H   1.28101888227114      0.87661523929951     -0.08314256419584
  H   2.79055805295958      1.74591785101491     -0.36402383871108
  H   1.88694321313230      1.04511870266525      2.33759547462538
  H   2.38576736278477     -1.71602586737534      2.19814599822433
  H   1.80511753723592     -1.79349615896647      0.53158939897224
  H   4.56923731784626     -2.49253894982350      1.43338086452048
  H   3.55522361227499     -3.42142430538323     -0.67210965707816
  H   3.63481010909097     -1.82535677752065     -1.40809662588125
  H   5.99042632361855     -2.00443842588307     -1.16807715037432
  H   4.97645760834421      0.06334747608304     -0.06162632568944
  H   5.08626480836226     -0.12367813260542      1.69115754475865
  C   8.11091724641475      1.24781304205589      0.10093856781478
  C   8.06603251532138     -0.26644736896315     -0.24808602664689
  O   7.09535002716523     -0.52348834124324     -1.25245489573743
  C   9.48675310387686     -0.90824524158414     -0.50139637826105
  C   9.38029861469066     -1.65750628638495      0.86771846293317
  C   10.31760002140929     -1.10530496400400      1.97128354101977
  O   9.92160981819562     -1.69135292521197      3.21009001915895
  C   7.89141366491519     -1.20294073317225      1.00170403527698
  H   8.82805308653453      1.43227060678615      0.89232383520739
  H   8.40022488934797      1.83474112300938     -0.76533676103622
  H   7.13244711489128      1.57789973452453      0.43736076880182
  H   7.31525773711342     -0.03355245935924     -2.06575065901524
  H   9.48600266766472     -1.58262941425653     -1.35063864215966
  H   10.30775568305899     -0.20917475543311     -0.60122459164453
  H   9.50810987423869     -2.73203068246887      0.80328955733278
  H   11.35639782227998     -1.35368123971067      1.71786246211143
  H   10.24372718348679     -0.01211181069066      2.00427599934587
  H   10.51247845468252     -1.38103012603620      3.92161822050712
  H   7.63155907874608     -0.70444819771653      1.92761769953278
  H   7.18524801837583     -2.00650166656225      0.81789805825520
