40
Coordinates from ORCA-job dimer_009737/dimer_009737
  C   0.62274109615251      1.66763101092495      0.21977106420332
  C   0.80384859453993      0.13588201784279      0.20228006122046
  C   1.02154726385516     -0.44098414214827     -1.22498159986857
  C   1.71735704400391     -1.81723499623822     -1.01659801531038
  C   2.36568892221441     -1.76471726895941      0.40579818074218
  C   2.08004169784732     -0.33769315366978      0.95157508582252
  C   -0.43408666806646     -0.54717588643603      0.83675336909944
  O   -1.38013314242571      0.05238511201355      1.28548572966268
  H   1.48713706585590      2.14608590126854     -0.22804310253420
  H   -0.26202200599681      1.95314936501446     -0.33921479289688
  H   0.50967244339578      2.02786555902435      1.23673971681445
  H   0.09587071174310     -0.52226659018089     -1.78248511832370
  H   1.68201646907545      0.22638256606187     -1.76904197283673
  H   1.00059630015055     -2.62782946329135     -1.07737432320460
  H   2.46123868462197     -1.98890285602101     -1.78560274213816
  H   1.92362771535412     -2.51342455363369      1.05267402583274
  H   3.42850274362859     -1.96846351921625      0.36878145454666
  H   2.89077908623749      0.33304961956040      0.69445894599424
  H   1.96074497629042     -0.31790786939246      2.02858922180775
  H   -0.39333148414083     -1.65143881548530      0.84939112311371
  C   5.74180049960086      1.98780667665969      0.14501388469860
  C   6.09201028314020      0.50928600917692     -0.12145647762165
  C   7.54633761779541      0.29677762516116     -0.62829437667326
  C   7.86235935030731     -1.20097161523225     -0.34700001910468
  C   6.88776599958504     -1.63934182006511      0.79632777214189
  C   6.06146333855568     -0.37296830791623      1.15791410474828
  C   5.11180866513301     -0.07683194892603     -1.16884573998765
  O   4.20837282191953      0.54908415106449     -1.66622591484758
  H   6.42864136771300      2.40850632781354      0.87088797497773
  H   5.80576645188805      2.56641365431460     -0.77060848469113
  H   4.73183074469069      2.07817842815956      0.53062670712905
  H   7.66454410313664      0.56020921424745     -1.67305371784253
  H   8.20781782134555      0.93333614597078     -0.05168486819500
  H   7.70143336439375     -1.80075824553517     -1.23523808211291
  H   8.89884863360294     -1.33210070784176     -0.05883675571287
  H   6.23686591943250     -2.43648726067988      0.45648077514159
  H   7.42618250143328     -2.01468258405235      1.65875487987488
  H   6.54590204443184      0.17208997545092      1.96015071015345
  H   5.05422094143999     -0.60636781248933      1.48136990244049
  H   5.30092601611743     -1.13090594231923     -1.44069858626366
