44
Coordinates from ORCA-job dimer_009556/dimer_009556
  C   1.31629618571689      0.39676225376378     -1.22039541685310
  O   1.73625775653394     -0.69429303290976     -0.41844375861078
  C   1.67431210991002     -0.49160958541769      0.97209129619759
  C   2.57171795227229      0.68438744916884      1.45204218160856
  C   0.23378915868330     -0.43711557671155      1.61119112068479
  C   0.69721227638265     -1.49116314566702      2.66716318321033
  C   1.94737693157212     -1.81335294126606      1.78145523514043
  C   1.78663671152862     -3.09235151333709      0.93408247522679
  H   2.02823757656679      1.23045043783618     -1.19381018171184
  H   1.24901518235862      0.03883863557734     -2.25240742365262
  H   0.33100501326374      0.77511281691171     -0.92105140116262
  H   2.17560242068535      1.63778562868166      1.12262916842831
  H   2.61323145365181      0.69228367444399      2.53479834022901
  H   3.57946023438769      0.57130827796167      1.06240040384798
  H   -0.09582081366992      0.52346451367653      1.98607987580173
  H   -0.51521216741717     -0.83592067415770      0.93706629298966
  H   0.95874873716727     -1.04260977612795      3.61808286960197
  H   0.02134547695737     -2.31808665884407      2.84464305132772
  H   2.89467387768680     -1.82940506828965      2.30467457051495
  H   0.83706136616648     -3.08796853062565      0.41107205705523
  H   2.57809059079709     -3.16114670073764      0.19476100199310
  H   1.82630140419861     -3.96972859097047      1.57183413475434
  C   6.20843249858149      1.67269675793046      1.53057612435770
  O   6.10193851797007      0.60028056983312      0.60809800553290
  C   6.69333831392107     -0.61244751775363      1.01331157795995
  C   8.22982667252073     -0.49192444622243      1.22060395202850
  C   5.98879346438417     -1.36897222650421      2.20284745081005
  C   5.95547254159540     -2.66259344893015      1.32758619780422
  C   6.32450919978869     -1.81330363261870      0.06412256257613
  C   5.13415919819819     -1.53425414503367     -0.87642782812669
  H   7.23063294370264      2.06289562731147      1.60042254576114
  H   5.55947942972412      2.47871881599051      1.17474867463541
  H   5.88082982372801      1.38675521110343      2.53761546370590
  H   8.46652357377944      0.14631787505642      2.06405423549752
  H   8.64839072322081     -1.47360102128867      1.41121893667221
  H   8.69405550388961     -0.08322396756881      0.32885227120206
  H   6.54003282201987     -1.42203407120149      3.13305266521942
  H   4.99882508371756     -0.97566205150137      2.39663960378474
  H   6.72417027052124     -3.37583692429758      1.60006300818746
  H   5.00283751480323     -3.17537439664236      1.28090589387787
  H   7.16596394869279     -2.18750576386542     -0.50584180826315
  H   4.26394528309373     -1.19642622345289     -0.32463923097773
  H   5.39377248980975     -0.76897019540086     -1.60037606726066
  H   4.86508074693635     -2.43971071790244     -1.41086331160665
