36
Coordinates from ORCA-job dimer_009858/dimer_009858
  C   4.57199866366141     -0.92743330413969      2.13311160217836
  C   3.58521328357722     -1.50966531753933      1.18534095995537
  C   2.81621025001282     -1.96678012529579      0.43086752741119
  C   1.84633150778035     -2.53801803034048     -0.53681908312062
  C   0.49713934373296     -1.78141584224992     -0.51535341070006
  C   0.58508675109325     -0.26244534675429     -0.73085817813970
  C   -0.74642330337022     -2.52708104591959     -0.91710800475537
  O   -0.45275425323652     -2.23389585667526      0.46987954872506
  H   5.41054295092203     -1.61182292008028      2.28125799238458
  H   4.96913599317179      0.00856178328308      1.74109351560547
  H   4.10623316843276     -0.73260884072250      3.09894364848180
  H   2.26266737184237     -2.48923160650842     -1.54435330613009
  H   1.66803957873359     -3.58826347252861     -0.30468385127956
  H   0.99570353988627     -0.04775521210544     -1.71337284648507
  H   -0.40004011238569      0.18687549587201     -0.65339415599699
  H   1.23385631573936      0.17846855442746      0.02115989498504
  H   -1.57798101483740     -1.98126160117479     -1.36075345097843
  H   -0.67483888875114     -3.57236531627049     -1.21452249756690
  C   4.37869663790868      0.49301213139997     -1.57475137218898
  C   5.57187267800599     -0.34205382033102     -1.27644432387478
  C   6.51131852031275     -0.99910397495596     -1.04135042172455
  C   7.69704173304109     -1.84330199197525     -0.74616993013796
  C   7.37143293002781     -2.95596958586305      0.27842515014481
  C   6.17567879590031     -3.85402618738110     -0.07476296405202
  C   8.49307664340446     -3.49117608809552      1.12737786190524
  O   7.50532288712097     -2.57960306031369      1.66366454457808
  H   4.67038391157948      1.40921505114991     -2.08856847831694
  H   3.68140008249025     -0.05179909548426     -2.21002652601852
  H   3.86085575647567      0.75881438999114     -0.65328315125774
  H   8.05412058385939     -2.30689771535505     -1.66748618845192
  H   8.50415154511090     -1.22312992081908     -0.35533474070778
  H   6.36373073293168     -4.37016068517503     -1.01196540885336
  H   6.01177935584036     -4.58841712549434      0.70734221110069
  H   5.27835354033395     -3.24862300140309     -0.18097712683339
  H   8.44792690868571     -4.51834121365781      1.48711961985295
  H   9.49946622096500     -3.09281225851431      1.00530566726211
