36
Coordinates from ORCA-job dimer_002372/dimer_002372
  C   -0.79663613881002      1.27346733528262      0.29823106284608
  C   0.44471725333153      0.41166294388158     -0.08920454320322
  O   1.67058553220563      1.04371254965431      0.28792314781277
  C   0.33271811419253     -0.99904046139972      0.53632082808301
  N   -0.70074271652098     -1.88829874975409     -0.02554572651399
  C   0.71685419862136     -2.26441576196266     -0.21340001116907
  C   1.27348262167180     -2.25397932774773     -1.64358843564769
  H   -0.72869012522753      2.25807666667780     -0.15413281034923
  H   -1.69805900457478      0.78193020634050     -0.05598624952547
  H   -0.86689586219588      1.38622305233704      1.37522944021923
  H   0.47400765652832      0.31299705450068     -1.17661681104639
  H   1.62794345764316      1.29658129312073      1.22849314338924
  H   0.48552276033576     -1.00848707086284      1.60969384945763
  H   -1.18344725183185     -2.44579420832041      0.68145484248870
  H   1.10768417834355     -3.06554288460566      0.40575350195245
  H   0.73267363858630     -1.54373118627448     -2.25833298136495
  H   2.32952525304775     -1.99073875326894     -1.64283938946790
  H   1.16049134621238     -3.23811254489799     -2.08896296046487
  C   7.15935271926985      0.67866238351428     -0.64627722006134
  C   6.54670736967184     -0.59322208856925      0.02153023516028
  O   7.34713721115222     -1.06719934903172      1.10464265842665
  C   5.09185851887382     -0.31356757738504      0.46358937915738
  N   4.03299922903597     -0.58922831520336     -0.52522451240747
  C   4.10112692330787     -1.44271882296936      0.67778183617914
  C   4.49551327904845     -2.91541174426806      0.49956887622924
  H   8.17029665400233      0.47577213616151     -0.98509659423033
  H   6.55300868168304      0.96970459121056     -1.49858837360859
  H   7.18634660889809      1.50605717320444      0.05485270209024
  H   6.52733839166999     -1.39576882776248     -0.71878629262848
  H   7.39529846371937     -0.37555519906201      1.79019725266699
  H   4.98254411658712      0.55617843916820      1.10038046713061
  H   3.26297865475503      0.08871957003553     -0.48006950133640
  H   3.35927118630595     -1.27440745356272      1.44986676812324
  H   5.10112870281073     -3.04161747281701     -0.39051411270955
  H   5.06450635220740     -3.26469041034111      1.35692613293354
  H   3.60916002544112     -3.53328918502297      0.39532240138854
