44
Coordinates from ORCA-job dimer_006136/dimer_006136
  C   0.58520202064225     -1.59346187730078      1.27996388265747
  C   1.56468805678536     -1.05793302660088      0.21812168440545
  C   1.35938397940948      0.40403992057055     -0.29199874519026
  C   2.92443795192350      0.59342978560221     -0.26525805708451
  C   3.56236320135950      0.35957914595401     -1.66453437623090
  O   3.42366192966264      1.76178042204532      0.35111789419980
  C   3.02300955227622     -0.67782072976710      0.65491232636697
  C   3.17054624190536     -0.32578280130175      2.14886076982089
  H   0.49559140012267     -0.90444902128972      2.11119130865149
  H   -0.40036879355156     -1.72984696521531      0.84611240615593
  H   0.92214428378795     -2.55070443838380      1.66477350572276
  H   1.59793735333943     -1.74677810476900     -0.61765318124574
  H   0.86377464123293      0.53262140216962     -1.24574036596283
  H   0.87581366689877      1.02537467379303      0.45227559712807
  H   3.31505681280840      1.17284116506768     -2.33931818581924
  H   4.64161377377139      0.29452926223234     -1.57734725404017
  H   3.19239251950499     -0.56330650231946     -2.09633013395376
  H   3.32220385426612      2.52054232329288     -0.25194035988134
  H   3.78779642620507     -1.38595699687686      0.36135142214294
  H   2.42759810981178      0.40305934439015      2.45001061160664
  H   3.05273234641070     -1.21439695599853      2.76012787496061
  H   4.14888770321447      0.10116341587685      2.34197915504425
  C   7.08395210519825      1.87944554870703     -0.36462400852104
  C   6.78579688914107      0.57114457417901      0.39227834020980
  C   7.15814789340263     -0.77407373758176     -0.30902661395804
  C   7.71339378599198     -1.30339247300268      1.06828763145881
  C   6.68969979159782     -2.20679029294205      1.81293544559178
  O   9.00392704706603     -1.87980463523802      1.05622948989844
  C   7.70421442996269      0.17634407651937      1.60170148966694
  C   9.10147601002693      0.82709924750964      1.60152107023221
  H   8.10851617146659      1.90570152025525     -0.71567345443318
  H   6.42864311727763      1.97359042172542     -1.22402781458077
  H   6.91982697726073      2.73649073077950      0.28055275318098
  H   5.74529941964684      0.57249879023485      0.69612609358926
  H   6.35169742433903     -1.33802597727648     -0.75931824877368
  H   7.95558500964853     -0.64719823728603     -1.03127173877393
  H   6.57632151739829     -3.15983007104724      1.30643199915710
  H   7.02671972477358     -2.38941854613082      2.82827704571568
  H   5.72039674776704     -1.72361048911707      1.85065216930734
  H   8.95667286061356     -2.77426709561970      0.67201220407195
  H   7.24333183113599      0.29400570731239      2.57470757277072
  H   9.59842538036242      0.68096127855763      0.64996032445680
  H   9.02177559841851      1.89202722567490      1.79288499939412
  H   9.72041521771519      0.38075802561544      2.37302091488409
