44
Coordinates from ORCA-job dimer_008000/dimer_008000
  C   2.27078400585011      1.11894530044844      0.72354229713915
  C   1.78207192088066     -0.31887539531017      1.05933793066749
  C   0.96751841833016     -0.97076722803487     -0.10272326825340
  C   1.93792570376606     -1.97957342981124     -0.79295060349071
  C   2.47903501440488     -1.46201305027603     -2.15459735128273
  C   3.05436251676998     -2.14362388360437      0.24117117654184
  C   4.13355079372976     -3.19643580773081      0.06151430438314
  C   2.95798503330648     -1.27846006424758      1.21858329700501
  H   2.85635100063595      1.11522667387137     -0.18833549590472
  H   1.42680985120482      1.78697540994438      0.58822443239813
  H   2.89114103642913      1.50772187337536      1.52405969670957
  H   1.18566585591401     -0.27404012382740      1.96507781341130
  H   0.11464983784145     -1.50224676923774      0.30253958216698
  H   0.59265981020748     -0.23086331134024     -0.79764936841581
  H   1.44167706482454     -2.92909746520638     -0.96588226340426
  H   2.95763676681873     -0.49741880562967     -2.03276504043060
  H   3.20347295302506     -2.15369471627497     -2.57021603397527
  H   1.66690823496281     -1.35183763246621     -2.86526869983683
  H   4.69287830953339     -3.01994257025235     -0.85337379806948
  H   4.82802096206013     -3.17699843843550      0.89414548720971
  H   3.69504473440841     -4.18903718794372     -0.00552552488402
  H   3.64541443907720     -1.19384071348432      2.04416443038626
  C   6.00411908432769      1.51964676937643     -1.09703016022392
  C   5.92163219085652      0.05756379743739     -0.58480260884345
  C   7.05456381295813     -0.85565213553389     -1.15012077843963
  C   7.57511162238517     -1.70127363324525      0.05363611645276
  C   9.12251533030590     -1.79182511050395      0.10323052555534
  C   6.97299211636761     -0.98765367963329      1.26678666952399
  C   7.36426230602294     -1.39355921680720      2.67717707292077
  C   6.11092830102676     -0.06435588027061      0.92382374426949
  H   6.95740504386303      1.96141347046256     -0.82929917807958
  H   5.90307825856497      1.55176683977654     -2.17673520865817
  H   5.21403504384003      2.12191521199455     -0.66101324759757
  H   4.94885044412554     -0.34435902259073     -0.85172675583517
  H   6.70315971711785     -1.48064523754243     -1.96162984985700
  H   7.85790677039917     -0.24209906943044     -1.53751495351775
  H   7.17811008020787     -2.71115732977837      0.00371456240851
  H   9.55563208645927     -0.80371454314604      0.21128521043447
  H   9.44775250426996     -2.40234615080734      0.93833103598961
  H   9.50445306726447     -2.23452949461823     -0.81049596583663
  H   8.41724492278095     -1.19314160893772      2.85847862615131
  H   6.78104431669985     -0.84874524787371      3.41157804060755
  H   7.20199993132746     -2.45811703007829      2.82710023221191
  H   5.54989931984696      0.55235918322415      1.60649337629240
