44
Coordinates from ORCA-job dimer_007824/dimer_007824
  C   2.93810402771143      0.87847606439426     -1.05017930132736
  C   2.68136393222353     -0.45966841079070     -0.31048380067675
  C   3.42569126082520     -1.62764656807799     -1.00603155060264
  C   3.18468173790423     -2.96486974222515     -0.26184674772444
  C   3.62048422497557     -2.86390224042142      1.22149535317772
  C   2.88448595179774     -1.68599543177854      1.93144168724900
  O   3.35141884044581     -1.49390436693368      3.26587231340170
  C   3.12599194017211     -0.35521002210957      1.16969546799754
  H   3.99453360889932      1.12227481813054     -1.03411297776930
  H   2.61890277182921      0.81332086480278     -2.08468313217865
  H   2.39667231639189      1.68901081654734     -0.57440224536013
  H   1.61781642274550     -0.67124485697415     -0.33579975378805
  H   3.09236075562565     -1.71191989569603     -2.03442327260705
  H   4.48660651988585     -1.40878355731599     -1.02732165502098
  H   2.13098825934883     -3.21792684953711     -0.31274315047559
  H   3.73127822425176     -3.76493495628806     -0.74982564569045
  H   3.40257165234583     -3.79479092327204      1.73440116992677
  H   4.69085578981011     -2.70058976728059      1.28644688320890
  H   1.80910088172306     -1.89829022832880      1.92426267173213
  H   3.29652038235661     -2.33717064765841      3.75233288922857
  H   4.18066474792137     -0.11385613649316      1.21772451664593
  H   2.58561277899029      0.44149566724911      1.66912372745302
  C   6.76537797397937      1.63468171873464      1.32946400420448
  C   7.01324757895758      0.39065477481762      0.43882764100037
  C   8.28214068568424      0.57745721713012     -0.43202010411246
  C   8.54526139160198     -0.66976307432341     -1.31290665244983
  C   8.67141569083217     -1.94442106184384     -0.44092394145432
  C   7.38474902990768     -2.13685209167098      0.41898762331613
  O   7.47868369987467     -3.26622041939750      1.28543437778212
  C   7.14866761086175     -0.88575532810363      1.30697222702835
  H   7.60476521414265      1.79291953301463      1.99740259174912
  H   6.64207370995162      2.52373958260678      0.72063275096502
  H   5.87262578742410      1.50373277491506      1.93215162333071
  H   6.16398922304810      0.26427953731560     -0.22328462002882
  H   8.16892808108438      1.45502882147930     -1.05883218787396
  H   9.13469247663066      0.75008525029094      0.21509358356653
  H   7.72836240347555     -0.79356210146244     -2.01596414343790
  H   9.45139278201188     -0.52989653515698     -1.89298725845469
  H   8.83035427508659     -2.81294093682016     -1.07149585515758
  H   9.52545385831980     -1.85734015515958      0.22200768376724
  H   6.53361917343871     -2.24484354429014     -0.26220500082366
  H   7.67775041994748     -4.06158462734775      0.75760132667220
  H   7.98402824673263     -0.78004381856218      1.98988297762011
  H   6.25590600082492     -1.03142640210864      1.90632653099092
