36
Coordinates from ORCA-job dimer_009880/dimer_009880
  O   2.82602669869246     -0.37190230099761      1.54472053672882
  C   2.17072073405858     -0.14747182250747      0.32293224245276
  C   3.18735088314604     -0.15669336785293     -0.82817422663970
  C   3.88282034868850     -1.54705986290331     -0.91931229839452
  C   4.90941760457830     -1.58252080006908     -1.99667699530662
  C   5.71840904333626     -1.59568161327892     -2.84449344174895
  C   0.77246079991434     -0.71832171128246      0.06631759732849
  C   0.96892601808906      0.79620310606323      0.23353418368948
  H   2.19435548783296     -0.32316709195646      2.28550799207887
  H   2.68294842825348      0.06787537688967     -1.76236388153920
  H   3.93087663863813      0.61751582737476     -0.65156032391971
  H   4.35107110960712     -1.77558227848008      0.03896665356003
  H   3.13550873907130     -2.31751073027308     -1.10835341785115
  H   6.45576153948188     -1.61350283843960     -3.61894992819417
  H   0.54931956060594     -1.10483747221713     -0.91636927092773
  H   0.27886895482088     -1.24992729703958      0.86619636199909
  H   0.60527953414330      1.25077691012625      1.14339574915358
  H   0.87776571243518      1.43034885780038     -0.63540316835116
  O   6.58999795123268      1.02180913681907     -0.78434992865684
  C   7.20041717498111      0.27173443422385      0.23111676052877
  C   8.33061257803275     -0.66161854968855     -0.24649253230393
  C   9.44382313139723      0.16241413479586     -0.95779970025743
  C   10.51735196216325     -0.71274844466331     -1.50246130118394
  C   11.35570791344649     -1.41142147707911     -1.92761529417001
  C   7.36848366748886      0.98706733873469      1.56694979201430
  C   6.36146771637097     -0.15952576932489      1.44297071684267
  H   6.19149347574530      0.41077671718844     -1.43368089329883
  H   8.75022686087988     -1.19216698762309      0.60167751533461
  H   7.93081369365708     -1.40418133747734     -0.93195968452239
  H   8.99976518105083      0.74482677403489     -1.76547216533002
  H   9.87448532812236      0.87319362224542     -0.25290217815788
  H   12.12256781987190     -2.04611144133975     -2.31511451659477
  H   8.27840861840147      0.82387942809397      2.12384664155404
  H   6.97262417015666      1.98943981562752      1.63998499351081
  H   5.30932928486800      0.09139004213429      1.45442801298766
  H   6.59621963673865     -1.10188232765849      1.91343939758507
