36
Coordinates from ORCA-job dimer_006229/dimer_006229
  C   -0.19770246914528      0.99602798506770      0.26734679531264
  C   0.61897080841170     -0.27767373495648      0.55770173133445
  O   -0.13380408748202     -1.38344233882725      0.98508550146349
  C   1.87614230311958     -0.57646080689466     -0.29169055934158
  O   2.24056118775359      0.31069501712398     -1.30446507683730
  C   2.01826583348762     -0.16019478111620      1.19610367034272
  C   2.56120414732662      1.24575681588797      1.51827374379105
  O   2.38321473101045     -1.15363448284973      2.11117277911426
  H   0.40914207872413      1.73004573449757     -0.25097233630626
  H   -1.04402310748305      0.75323080379914     -0.36853961798484
  H   -0.57259696107090      1.42495437081874      1.19202139112197
  H   -0.72594691338962     -1.66142418365352      0.25999735374401
  H   2.05053263932765     -1.63672136496987     -0.47680743478201
  H   3.22088423922493      0.30913334477802     -1.36183375538363
  H   2.41260653966199      1.92167716733170      0.68417081547362
  H   2.06329378179915      1.64878223819569      2.39505131419205
  H   3.62374568576261      1.18662850700397      1.72444762169186
  H   3.24717435212695     -1.51626266024416      1.82375508237890
  C   6.38281515274809      1.64102845490735      0.22832070018809
  C   6.00180840265113      0.19431417460892     -0.13727502284983
  O   5.08173737421871      0.07385068771704     -1.19284330484444
  C   7.07274001060398     -0.91408378841119     -0.03668698634797
  O   8.35178329799278     -0.52875850283765      0.37453809379765
  C   5.88509609727860     -0.87617798354494      0.96781288900808
  C   6.15713786594706     -0.49062386752102      2.43460431151776
  O   4.85910664878329     -1.81919672681913      0.78749569563739
  H   7.21738726799907      1.65731969050537      0.92099450172098
  H   6.68187266326535      2.17749745552700     -0.66831384349433
  H   5.53383789714615      2.15424325906460      0.67191237889134
  H   5.50940485089881      0.35633877065001     -2.02470921749169
  H   7.00654040283943     -1.68627422497587     -0.80492132179812
  H   8.80537861051542     -1.27738445912909      0.80751245264575
  H   7.04168360146239      0.13197169121407      2.51441462032630
  H   5.30733543456188      0.04592246831608      2.84899407025914
  H   6.31512679674567     -1.38670289269101      3.02888208649468
  H   5.18430783517581     -2.71300183757334      1.01078887701378
