38
Coordinates from ORCA-job dimer_003013/dimer_003013
  C   0.11825258977273      0.88098577366897     -1.98006904078727
  C   0.73432040009434      0.68338082760811     -0.57089744823019
  C   0.14130684942477     -0.53988211903075      0.18908521218478
  C   0.47177861399834     -1.87537961051806     -0.52176365865349
  C   0.67620354879142     -0.51292020256732      1.63689244751733
  C   0.91156812265092     -1.74812573886064      2.46264398542140
  O   2.00958406225549     -1.01473195329353      1.87100935541896
  H   0.49778840721328      1.79170856320259     -2.43207836321304
  H   0.36328438201789      0.05490536700386     -2.63666629702988
  H   -0.96211663967999      0.95796113858286     -1.91855023438313
  H   1.80843078016282      0.55803132028135     -0.65161906142733
  H   0.56060422544245      1.57678042308267      0.01988112600381
  H   -0.93806829192705     -0.42314777796981      0.23981487618763
  H   1.53810710479676     -2.06738901286777     -0.48181799847095
  H   -0.04785194903012     -2.70335443946899     -0.05445935589142
  H   0.16707674814777     -1.83663463508324     -1.56017721000834
  H   0.43936237771135      0.40293395566409      2.17815535915836
  H   0.82483886322106     -1.68804463816183      3.54749504596628
  H   0.70713921945419     -2.73178265601670      2.04520156785707
  C   5.99173797849927     -1.35816684700366      1.41345876317956
  C   5.60763036580682     -1.67062791271885     -0.05631710676283
  C   4.47710275533711     -0.74209664026049     -0.58834637299769
  C   4.94339974912482      0.73128999368605     -0.68245144108146
  C   4.00418802415546     -1.28170729291284     -1.95428594541748
  C   3.41235007492236     -0.41785599464448     -3.03373822332836
  O   4.76533470718533     -0.92301718380757     -3.12806933291258
  H   6.69365890968032     -2.09682258681805      1.78612571556568
  H   6.45527849697971     -0.38269244876810      1.50011779059249
  H   5.10863622581644     -1.37353837697352      2.04484567609018
  H   6.47729533036858     -1.57814185383175     -0.69907439719299
  H   5.26990832764626     -2.69950148045916     -0.12111842483108
  H   3.63788624773463     -0.80747133249064      0.10137730681591
  H   5.72610176508478      0.83116709465572     -1.42713104723729
  H   4.12323446901939      1.38499424033944     -0.95275138353373
  H   5.32905629203008      1.06384649857056      0.27333516099814
  H   3.68330830812947     -2.32264688713165     -1.93009534023864
  H   2.69060119559544     -0.84972802028776     -3.72592180579270
  H   3.30549810636499      0.65332332460097     -2.87984813253567
