38
Coordinates from ORCA-job dimer_001816/dimer_001816
  C   0.43977087525307      0.60526634611917     -1.79040123874099
  C   0.64220242251519      0.29660740417122     -0.27892033869637
  C   1.89242158848876      1.06505798815045      0.24936394516370
  O   -0.53670000902415      0.76243518711048      0.38566725617672
  C   0.75313368722016     -1.23595672516793     -0.09454767246842
  C   2.04993497171519     -1.98522173787072     -0.35919326373829
  C   1.51461419735518     -1.86660254172188      1.06564304436983
  H   1.30810833268328      0.27939673804027     -2.35247168568649
  H   -0.43756919027620      0.08651111170335     -2.16100770849721
  H   0.30168447584943      1.67135696947751     -1.93509631802766
  H   1.75408315822769      2.12471598157195      0.06757025343677
  H   2.01962134490755      0.91776075769842      1.31464882055652
  H   2.79628004633387      0.74152884317345     -0.25814125942622
  H   -0.47532060218124      0.52583308505821      1.32971866925762
  H   -0.15439422415699     -1.73933686595168     -0.39204394046331
  H   1.98445907457090     -2.94627454177277     -0.84547548201607
  H   2.92942703680475     -1.41581049460960     -0.62642754057186
  H   2.04109194323712     -1.22503902475711      1.75262554979263
  H   1.09466485173383     -2.74631096566316      1.52857343988780
  C   5.36147712576040     -0.37549917479785      1.18284330939028
  C   5.87298258302073     -0.63342304071840     -0.26388897880968
  C   6.12950374710762     -2.15981414690790     -0.45959423746981
  O   4.83178025347032     -0.19844429847583     -1.14363563076444
  C   7.13113486536462      0.23010180134248     -0.51382688005892
  C   8.53517145520637     -0.25734401492852     -0.18746541873510
  C   8.10998070457215     -0.07632824701758     -1.64216392309376
  H   6.12889709146457     -0.64651085928413      1.89971265111612
  H   5.11686809775126      0.67390953484251      1.30722922457449
  H   4.47313727323981     -0.96760648516311      1.37397459103172
  H   5.19682139894133     -2.69303502605099     -0.30858947343563
  H   6.48997330557873     -2.37768666166210     -1.45771670398271
  H   6.85199058894754     -2.52599921026230      0.25959234852982
  H   5.15766836351466     -0.23562576916963     -2.06191015361067
  H   6.94106695886347      1.27700968590919     -0.33009417009080
  H   9.23235960721557      0.45205832556420      0.23261960043601
  H   8.66258179896597     -1.26222717859613      0.18186407093900
  H   7.96052684140868     -0.96163219029033     -2.23885781011673
  H   8.52256103334809      0.75452076190688     -2.19433115615786
