40
Coordinates from ORCA-job dimer_006226/dimer_006226
  C   2.22398695066060      1.01927910682423     -1.13838165862610
  C   1.29223704761069      0.19126269708717     -0.19257795543532
  O   0.61386364998857     -0.84809351511200     -0.89866187221506
  C   1.27531870704821     -2.07512792925409     -0.61914198381156
  C   1.85475962573945     -1.84085069599676      0.82247362747636
  C   0.80643258591886     -2.21749673496182      1.91065710885178
  C   3.20281606314218     -2.57054550318004      1.05562822879200
  O   2.07062396600569     -0.42819867513757      0.83158289307421
  H   3.00540222012888      0.38247870971142     -1.54423477010726
  H   1.63934824532984      1.43587709257287     -1.95334211594184
  H   2.68264241510599      1.82939204993790     -0.58036141904494
  H   0.52719518358163      0.85090146077993      0.25507199707488
  H   0.55348491057753     -2.89428209232268     -0.65727920974165
  H   2.08135734829169     -2.27290580420228     -1.33562382728559
  H   0.64209351485726     -3.28967715188604      1.92147498848370
  H   1.16402143841335     -1.90889628914213      2.88752250358166
  H   -0.13763552692972     -1.72110820249221      1.71042480535553
  H   3.91356601060993     -2.29413011257599      0.28311329962566
  H   3.61359021866878     -2.29570185983906      2.02206838557616
  H   3.05057248299540     -3.64462372558341      1.03369450907986
  C   5.85213026510024      1.62232809749598      0.18314643176699
  C   5.39272333340773      0.14850982527124      0.45825564377939
  O   5.40553222324879     -0.63452859549833     -0.73463686702128
  C   6.69929420033209     -1.21340288788162     -0.84825380832446
  C   7.21024912516816     -1.30736269336746      0.64693551237050
  C   7.13500356466527     -2.76330317035912      1.18930299183995
  C   8.64858419755556     -0.73694731678010      0.81232573388105
  O   6.27106148337880     -0.50773276359471      1.36695647302434
  H   6.84741766329863      1.64227615553848     -0.24595799855788
  H   5.16311184962280      2.09692605164239     -0.50855282910816
  H   5.86067978627877      2.17942819616165      1.11530602055007
  H   4.36639652887430      0.13886842040758      0.86904263141169
  H   6.61553634750108     -2.19629807403605     -1.31794716704043
  H   7.36728253179326     -0.59204792122494     -1.45472806957366
  H   7.84868143825670     -3.39640446590305      0.67257277372608
  H   7.36449581975158     -2.77115003184920      2.24995183249217
  H   6.13764609424776     -3.16462725097696      1.04575630819036
  H   8.69622989057641      0.29100928936142      0.47090247211197
  H   8.93842429095395     -0.76818742920405      1.85762038857142
  H   9.35362491924145     -1.32939117843021      0.23809820214728
