38
Coordinates from ORCA-job dimer_004484/dimer_004484
  C   4.87514285853104      0.73649963654604     -1.38931446039297
  C   4.40022200664068     -0.66625885421167     -1.06360022043149
  C   3.17951530883392     -1.24029370328016     -1.20378757050711
  C   3.27801386606248     -2.59681026038255     -0.74392792202850
  C   2.14486737463103     -3.60338625753633     -0.71744461032549
  C   4.56102616880875     -2.78800432166670     -0.34281501025041
  C   5.24850176511242     -4.00900309413699      0.23404214831151
  N   5.24399777920650     -1.60963572940060     -0.53410815821960
  H   5.75302120508883      0.71420424264246     -2.03101620065218
  H   4.08730396998168      1.27862572687389     -1.90215945174439
  H   5.13535933004007      1.28440139320236     -0.48668840070596
  H   2.29810150796478     -0.76817250781619     -1.59186287022522
  H   1.68279646700935     -3.69104523342964     -1.69706669950974
  H   2.49904681444689     -4.58429330619673     -0.42249701211165
  H   1.37128218998640     -3.30113430412655     -0.01567484291839
  H   6.21769289107826     -4.16583535089837     -0.23210995325574
  H   5.40574819776245     -3.90592865169891      1.30538354527390
  H   4.64227007056076     -4.89253941156180      0.06655649970860
  H   6.22705335348300     -1.46839721496241     -0.34009275165810
  C   7.78396964971256      1.72683634749100      0.89277303965467
  C   8.05285526284672      0.24497360111301      0.71724712198860
  C   8.42829677735003     -0.46210065083093     -0.37644897850065
  C   8.55564762651317     -1.84137098842713      0.01113847695575
  C   8.95376306923231     -2.97833218091105     -0.90859526442377
  C   8.24934330374211     -1.91419790177806      1.33123535144069
  C   8.22193499378968     -3.09161789212151      2.28451281707113
  N   7.94152746628762     -0.64166107388229      1.76164914624496
  H   8.52487933808980      2.18488547945389      1.54596935767188
  H   7.82859908083191      2.22209938732859     -0.07217283420994
  H   6.80055431830507      1.90182170028157      1.32404129898930
  H   8.60224647512866     -0.06487562950374     -1.35809294622466
  H   9.94093456997873     -2.80510393025523     -1.33011338190108
  H   8.97712602362410     -3.92298507248954     -0.37754032905904
  H   8.25513049559289     -3.07193120207250     -1.73691474934912
  H   9.03925068959389     -3.03449196179656      3.00161931217923
  H   7.28799755293199     -3.12467029559979      2.84075447408881
  H   8.32105855172063     -4.02057638919532      1.73351271458138
  H   7.67133647049533     -0.39853768776274      2.70422332044479
