24
Coordinates from ORCA-job dimer_011149/dimer_011149
  O   1.42731470785466      4.07381656979882     -0.55309964322059
  C   1.69903679240328      3.68681622066305     -1.66084220414298
  C   1.25394715682631      4.28629920513261     -3.03501049100444
  C   1.93085505777301      3.34172513827829     -4.02216344622954
  C   2.61031368301387      2.41120141280118     -3.35377747196314
  N   2.50232335032121      2.57487643887667     -1.97618637883087
  C   1.83177482576681      3.46314363404231     -5.45346250231942
  N   1.74750574604117      3.56844604379871     -6.58265828348531
  H   0.16572442326090      4.28465523622059     -3.11608054622012
  H   1.59331599133439      5.31933101588498     -3.12703979767081
  H   3.19945189687841      1.59378881225272     -3.76587798922306
  H   2.93787503217602      1.98163821172466     -1.27316071670788
  O   1.76079490590008      3.68645312027885      6.08751593826635
  C   1.88218392376029      3.50656771476875      4.90570624748502
  C   2.68496545697664      2.39223565693536      4.15708729955952
  C   2.41777109231762      2.74472096110207      2.69875399148626
  C   1.63576689788793      3.82184532899188      2.62427760550079
  N   1.29983569604742      4.29845818393894      3.88637151674214
  C   2.93245255319022      2.02287655863375      1.56594666293835
  N   3.33109969628492      1.46176597366134      0.66188772340242
  H   3.74107545827858      2.44140807183011      4.42794825168264
  H   2.31382476693307      1.40539818991901      4.43910032445347
  H   1.27789584724397      4.30513553072751      1.71114576153392
  H   0.71628096253355      5.10410568073507      4.06674061796611
