40
Coordinates from ORCA-job dimer_006844/dimer_006844
  C   0.12749154634743     -0.51764281788826      1.37748857659782
  O   0.34396030151815     -0.71937083406179     -0.01310303773868
  C   1.67191406395324     -1.01963171799404     -0.34963071023400
  C   2.19495833831814     -2.48596813433706     -0.08040839369421
  O   2.54892955832175     -2.62040277177768     -1.47646971597753
  C   1.90126261937290     -1.37736705157646     -1.86751715177697
  C   0.58596290155819     -1.64092096551781     -2.64302953189209
  C   2.85361009840904     -0.43799289863735     -2.64557780963341
  H   0.36276473185028     -1.41560917457404      1.96360394153769
  H   0.72810384165344      0.31463115940717      1.76733194157006
  H   -0.93177530411751     -0.27953397172684      1.51725587861305
  H   2.36709443598581     -0.25400065489675      0.01181667855912
  H   3.05133386228084     -2.59051223188447      0.59245146012457
  H   1.40543621785314     -3.18176790963448      0.22487574810586
  H   -0.05121690250262     -2.32241609571351     -2.08952134419223
  H   0.04950058874247     -0.70885342027613     -2.79094152347201
  H   0.81381408630253     -2.07647235256941     -3.61080587741190
  H   3.11043522856959     -0.88240454862195     -3.60171165610307
  H   2.36130812751509      0.51229833563379     -2.82664818890617
  H   3.76657440347022     -0.25712462418537     -2.08547674389074
  C   6.11185746530003      1.56902361264567     -2.66657098024770
  O   5.96839538640412      0.54379860450616     -1.69241042073611
  C   6.62356344736387     -0.65541473296678     -2.01837127266570
  C   8.18296003687213     -0.72146321020502     -1.77932233058891
  O   8.00556739518455     -1.81219260927674     -0.84734677627753
  C   6.55200265614789     -1.75827072071742     -0.89404938483150
  C   5.95428201382638     -1.24759881185339      0.44024089679058
  C   5.93618090896065     -3.10968991465212     -1.33259701787539
  H   7.16206158943535      1.85378307183927     -2.81123460910776
  H   5.69950264378205      1.26745990418667     -3.63842414103657
  H   5.56078488128187      2.44534783383335     -2.31081439827179
  H   6.32080068621030     -1.02643511672645     -3.00302520052573
  H   8.79591865027025     -0.99208225842535     -2.64494069168290
  H   8.59594205335356      0.17748004007584     -1.30837703448135
  H   6.44175255270594     -0.32783616486792      0.74593842301104
  H   4.89409772123815     -1.05452815821049      0.31948386932036
  H   6.09288483701331     -1.99641940926721      1.21363088089428
  H   6.11403271475836     -3.85949712296100     -0.56856867996178
  H   4.86211007452803     -3.00646566141744     -1.48059726081409
  H   6.38962364596020     -3.44723605970695     -2.25816422409635
