40
Coordinates from ORCA-job dimer_006843/dimer_006843
  C   3.40615524320491      0.81001063538568      0.32869708381431
  O   3.34001232721362     -0.46705178586131      0.95248961397691
  C   2.03277614602722     -0.95154302204709      1.12059115884435
  C   1.26793158502931     -1.47916130455745     -0.15250960211136
  C   0.83927353681309     -2.74150700286615      0.66116371934262
  C   1.93499722776303     -2.39249342029568      1.74634312232897
  C   3.24329549546235     -3.20572973284739      1.55611287141313
  O   1.50962912156469     -2.36023362085083      3.09336520043705
  H   2.91917592454449      1.58239269832243      0.93691305719482
  H   4.46560329238310      1.06487958969753      0.20806524338901
  H   2.93287705416965      0.80371895747721     -0.66092409554823
  H   1.40806338111466     -0.25880527745537      1.69589728990125
  H   0.47125289623182     -0.85335048191451     -0.53550122431258
  H   1.95456728435549     -1.71758831149135     -0.95691289401265
  H   -0.16253036529247     -2.65119576825030      1.06632446845243
  H   0.94274490706438     -3.69857377684368      0.16531188163064
  H   3.57951658227750     -3.14155818321264      0.52727275734574
  H   4.02162760013939     -2.80755974303511      2.19939123991035
  H   3.07786914934231     -4.25004409496681      1.80222739362385
  H   1.49241536325308     -3.26548380255094      3.45502641393004
  C   6.78617618680107      2.07530522884400      1.45937879766515
  O   6.79459772859221      1.01145549198337      0.51717222758000
  C   7.39516559641569     -0.16385240857057      1.00067543023679
  C   6.61941332060493     -1.03474524732285      2.05924471882482
  C   7.03233284108148     -2.31054113080200      1.25788062232192
  C   7.37122549658948     -1.39076335536340      0.01747552536529
  C   6.19480013092731     -1.31581577495093     -0.99218469849753
  O   8.61929026682857     -1.59510955882343     -0.61361968480396
  H   7.80153625253077      2.35236532634917      1.77057187520781
  H   6.32131203617936      2.94287218386790      0.98134501784349
  H   6.20842905006354      1.82100877098640      2.35756505734582
  H   8.42618329169148      0.01460665000056      1.32620618135051
  H   6.95751457115530     -0.97045519430165      3.08583024632097
  H   5.54932454192980     -0.85182560337768      2.01333092712502
  H   7.92478113874510     -2.77840850685222      1.65803953932473
  H   6.26692380875903     -3.06004504605415      1.10465776936023
  H   5.25856721875094     -1.16499575365453     -0.46384841474875
  H   6.34685629392223     -0.49000602007310     -1.67994041306930
  H   6.12718637613900     -2.24058002957192     -1.55615263773913
  H   8.54943832263074     -2.33125363214909     -1.24870854456461
