36
Coordinates from ORCA-job dimer_006212/dimer_006212
  C   1.82962628470272      1.10910449531565     -0.60908119796047
  C   1.07923673619691     -0.25972531619679     -0.55711910534237
  O   -0.15285271520722     -0.18325519099903     -1.27725900066213
  C   1.91812835795228     -1.42955723692482     -1.17203364827615
  C   2.31087391507787     -2.39071021655547      0.01141068128904
  O   3.70361218773557     -2.44182540187645      0.28158070547497
  C   1.49343465506560     -1.82944039268844      1.19237438292599
  C   0.86799366853998     -0.71739887992419      0.90143482937515
  H   2.78042406595203      1.02944254188135     -0.09020580053349
  H   2.01017932811673      1.39060559660937     -1.64125642256332
  H   1.24106892837271      1.88669497848188     -0.13386554249964
  H   -0.69710438170422      0.53573234445955     -0.90580724010498
  H   1.30068383451964     -1.94821063047256     -1.89799456594592
  H   2.80339304265393     -1.07001979359517     -1.68167098890231
  H   2.00692475737900     -3.41717067808217     -0.21615288790800
  H   4.00834928160526     -1.56074190215357      0.58765406016987
  H   1.49407611189762     -2.32787948346037      2.15085104192603
  H   0.25601112098461     -0.13879478972828      1.57688666961925
  C   6.37266484154574      1.81074761229300      0.88221122186863
  C   5.93550287658622      0.35564943865491      0.53992134527006
  O   4.63989128220282      0.08868667725816      1.09894922557531
  C   5.84837206947663      0.09254751481345     -0.99793175295332
  C   6.43787625410893     -1.34596832392593     -1.22759207845953
  O   7.23705285699996     -1.46196825918104     -2.39728601936158
  C   7.20024635463359     -1.60580054110023      0.08947131418446
  C   6.95135711530234     -0.70618057920148      1.00812801868683
  H   7.34957137020475      2.01604491136815      0.45723096357952
  H   5.65768467916354      2.52019222013537      0.47681250010104
  H   6.43279937656219      1.95045662197481      1.95704535617840
  H   4.66351426146260      0.22448556242052      2.06467359344070
  H   4.82769364627237      0.18633048962564     -1.35025664488651
  H   6.45340567272662      0.81845965023222     -1.52964361980962
  H   5.62951544080142     -2.08232925547510     -1.33214931361502
  H   8.00347463481475     -0.86233812202497     -2.32685651273339
  H   7.84488632136743     -2.46811562388173      0.19463236317817
  H   7.35088976592649     -0.69109003807620      2.01065206967440
