44
Coordinates from ORCA-job dimer_009681/dimer_009681
  C   1.52005743631473      1.43971033454593      1.07250518973148
  C   1.80925297253992      0.10314838296616      0.33673101666489
  C   0.77126918422176     -0.95803569633498      0.71367751639066
  C   -0.59587413271014     -1.01307189507787      0.03298303187040
  C   0.42317241450086     -2.14161261258492     -0.18534047960193
  C   1.07312806044273     -2.31279455756723     -1.57111391193523
  O   0.21134913898636     -3.33919351210699      0.51435246914364
  C   -0.80597015262519     -4.17567664848311     -0.02021258339990
  H   2.25335814045744      2.19289428546215      0.80339481998307
  H   0.53376729512446      1.80989584571856      0.81358352230602
  H   1.55766239990053      1.29566706424023      2.14709358546765
  H   1.80360674367013      0.27366521211762     -0.73294344150085
  H   2.79870215653047     -0.25688213380524      0.60905856584968
  H   0.75908904708723     -1.19852464048128      1.76687275475333
  H   -1.45799269773242     -1.22152520145544      0.64716014926488
  H   -0.78528780378382     -0.33853918911929     -0.78697048769175
  H   1.28944619849194     -1.34942322509176     -2.01657426205953
  H   1.99954249159296     -2.87206980000923     -1.48245749583278
  H   0.41012414850723     -2.85066596087039     -2.24126584729712
  H   -0.52520836659570     -4.60214852282188     -0.99070764959684
  H   -0.95835174899373     -4.99849946805720      0.68515609638163
  H   -1.75490724341520     -3.63894641228861     -0.14193710834428
  C   7.20454392047158      0.82915851799216     -1.71645716519426
  C   7.22500694596899     -0.21239236138914     -0.56439785137996
  C   5.80020107661562     -0.61356850288957     -0.16971374217200
  C   5.06392846756554     -1.72908655930017     -0.91087309761642
  C   5.48322681273511     -1.91930028542512      0.55467967274015
  C   6.60400495073029     -2.91721305536039      0.90136503809178
  O   4.48033563696164     -1.79726187965670      1.52653419818718
  C   3.62267998397894     -2.92564721456879      1.65749087913360
  H   8.21336255575432      1.10908131152859     -2.00194182795993
  H   6.70140874911319      0.41851454954559     -2.58551596391988
  H   6.67440291313953      1.72464412033865     -1.41004039776484
  H   7.78533229450168     -1.08442543822534     -0.88002448204133
  H   7.73590807182325      0.20385299104250      0.29952726119619
  H   5.18063117104719      0.21654347887505      0.13703113007345
  H   4.01576520704469     -1.58800833535893     -1.12139720883042
  H   5.60117868355753     -2.27863808150375     -1.66735568450552
  H   7.35242787292388     -2.94315560533719      0.11887586811156
  H   7.08234731684871     -2.62760220027051      1.83269004550165
  H   6.20291778745378     -3.91908204086262      1.01564532783562
  H   4.15003273272847     -3.80186524258083      2.05198727566948
  H   2.82906681553426     -2.65558376440916      2.36038503489068
  H   3.15508650598808     -3.20059195707903      0.70454704540609
