36
Coordinates from ORCA-job dimer_009843/dimer_009843
  C   -0.65912735310785      1.32167363166800     -1.11347005838967
  C   -0.15886544200411     -0.06412821712983     -0.67366463644340
  C   -0.15912826047319     -1.20999489016122     -1.65015307046374
  O   1.06174254742662     -0.52949191694459     -1.28318475759870
  C   -0.30116466037176     -0.41539777433757      0.83579656363853
  O   0.32011902844502     -1.64815096554736      1.14558540618673
  C   0.28233489856441      0.71322571472435      1.76907891561929
  O   0.27598324829651      0.26808228629618      3.11902772352212
  H   -0.57381877813480      1.43042931771043     -2.19056616932871
  H   -1.70153729806842      1.44431735269452     -0.83007707960995
  H   -0.07690314500408      2.10920744862228     -0.64329522573135
  H   -0.27020876969509     -2.22761768542676     -1.27223272233933
  H   -0.51100781923746     -1.04547858711334     -2.66868420991468
  H   -1.36863192845610     -0.52632330436089      1.05504635986118
  H   1.27412211176617     -1.59453263718652      0.91580313647632
  H   1.29530864760903      0.96683428776326      1.43393056085591
  H   -0.32916226093874      1.61758933129884      1.70410514314631
  H   0.47502242655520     -0.69011931733982      3.11550094514622
  C   4.53079459463862      0.67138803665718      1.93182636593543
  C   4.20348041935923     -0.21267255017876      0.71717823922706
  C   4.40211007766598     -1.70304698661997      0.79499699351349
  O   3.08537985885895     -1.11121617507159      0.85950360974141
  C   4.32466832682436      0.44864160940693     -0.68641562696709
  O   3.86008836139461     -0.41091475686712     -1.70971733234069
  C   3.55544514227473      1.82219725785475     -0.76862206268749
  O   3.56338947533983      2.29474899333210     -2.10922210325320
  H   4.47637576346953      0.09062315503949      2.84781833338764
  H   5.53459151281488      1.07705226832023      1.83282149367872
  H   3.82896173563876      1.49708498561879      2.00850556082782
  H   4.63309734883286     -2.25474737075300     -0.11767389932054
  H   4.77330077008919     -2.14605532820554      1.71924716716770
  H   5.38666642226058      0.63643882313388     -0.87812673985800
  H   2.91851313846453     -0.63475659495246     -1.53899342265589
  H   2.53294785967991      1.68287743463690     -0.39728403325463
  H   4.04238882659237      2.57187353579707     -0.13860564783528
  H   3.49637485362946      1.51577472062115     -2.69786979293956
