40
Coordinates from ORCA-job dimer_009757/dimer_009757
  C   0.97849287454814      1.03251851368902     -1.11124417404180
  C   0.76529365032368     -0.48001703819411     -0.85736282471977
  C   -0.46582786708604     -0.76747851175498      0.06124945348908
  C   -0.27336714807817     -0.15945926580781      1.48326610535730
  O   -1.64826601017629     -0.22521303748741     -0.53145800642584
  C   -2.58956530447293     -1.24620110485789     -0.84723907782626
  C   -1.92282358663663     -2.54722847817700     -0.37249159270879
  C   -0.74786976894710     -2.27733432174693      0.13217969080395
  H   1.79800562241130      1.18569191631343     -1.80647830210839
  H   0.07685055992416      1.47048223362260     -1.52752155854004
  H   1.22102347451122      1.55479556224570     -0.19387857507601
  H   0.60378217735538     -0.98647103982329     -1.80301006446236
  H   1.64739828717725     -0.91578112218372     -0.40113560942942
  H   -0.21950057014610      0.92155348466555      1.42262815990073
  H   -1.11095768506438     -0.42814166150740      2.11785264132888
  H   0.64102673727711     -0.53373081729481      1.93087211192355
  H   -3.54268189100245     -1.06261750984909     -0.33257161910736
  H   -2.79518199362577     -1.26304334977109     -1.92656355714595
  H   -2.39829061117036     -3.51169705178116     -0.46684995530360
  H   -0.03230171717480     -2.96883762161949      0.54894514791271
  C   6.85176773925165      1.37804677468108      0.23863521026811
  C   6.38451574585369     -0.08417620677030      0.44547153191778
  C   4.84668135817174     -0.25348840807376      0.21098404172732
  C   4.02086807035485      0.61048410806734      1.20776311941631
  O   4.51665712977732      0.12564928302418     -1.12712589427028
  C   4.20284852544413     -1.01433094764634     -1.92135558615634
  C   4.10933176011235     -2.16928988792503     -0.91063950309367
  C   4.46081437726174     -1.74136045283038      0.27356358911546
  H   7.93499048784345      1.43613450475598      0.26425063747024
  H   6.50769574164653      1.74413984394472     -0.72371138013538
  H   6.46061109935627      2.02774788337557      1.01284635951119
  H   6.90397123091142     -0.73378238291529     -0.25143460337583
  H   6.62644873445120     -0.42182107279448      1.44798962073239
  H   4.17722431125836      1.66353595615082      1.00237463660819
  H   2.96393225932925      0.39401565306844      1.10535460281952
  H   4.32662642728983      0.40089732744306      2.22719795092639
  H   3.25892418105892     -0.85103238861294     -2.45642846031024
  H   4.98287770036355     -1.20135702504722     -2.67338439240430
  H   3.80173191244022     -3.16509141752805     -1.19195668463546
  H   4.51133298987581     -2.30449929704744      1.19239303904801
