34
Coordinates from ORCA-job dimer_010836/dimer_010836
  C   -0.21154847828690      1.39757978454412     -0.49997125409535
  C   -0.10470234369039     -0.01834726011786      0.12062495076100
  C   0.51124752031620     -1.01443065032443     -0.92145173006692
  O   0.83819406031637     -2.29014847767050     -0.37141002726534
  C   1.14096886521329     -2.47419589236455      0.95110522863174
  O   1.62786990099058     -3.51847824988346      1.30075410821014
  C   0.77024643186933     -1.31471656611213      1.95386604901176
  N   0.71115552839110      0.00491361833779      1.33562186775873
  H   0.76797005524819      1.75894213131855     -0.79406200918449
  H   -0.85086832279064      1.38497204451929     -1.37719135283564
  H   -0.62996552762077      2.08547599170414      0.22825837152579
  H   -1.10190163750562     -0.36554751584038      0.39015583203096
  H   -0.18653516621529     -1.19380580729349     -1.74682688773581
  H   1.41766553915688     -0.56694975052273     -1.34548423002894
  H   -0.20179468454282     -1.56869732332541      2.38760199747514
  H   1.50080129554593     -1.33294203732131      2.76365669816820
  H   1.64783034013180      0.35961084284783      1.15914374775317
  C   3.51705774959177      2.68873544687295      0.66490608752084
  C   4.03889475745716      1.39382052609930     -0.00937025677357
  C   5.58118121644996      1.49798339379872     -0.25580861775355
  O   6.14026983049257      0.29566604054998     -0.77914086896713
  C   5.68398893389746     -0.93816415415800     -0.39224154830173
  O   6.35951455386971     -1.91016794613562     -0.60393596936071
  C   4.23248713617803     -1.02367965037753      0.22116817067569
  N   3.74321742655154      0.21971537510570      0.82028741528627
  H   4.01174911051288      2.84753386802773      1.61807776308738
  H   3.70959347340970      3.54925825897047      0.03148316029275
  H   2.44793305639825      2.61925235823597      0.84129947426324
  H   3.54232532758824      1.25948038216120     -0.97040957129593
  H   5.80429923910161      2.29045819419575     -0.97839434945991
  H   6.08059891506731      1.75563681917870      0.68685462926214
  H   3.57361072804212     -1.32784990688592     -0.59873363666489
  H   4.22465579077926     -1.83752192714923      0.95017368759003
  H   4.07721543408488      0.34110070301436      1.76926843048490
