44
Coordinates from ORCA-job dimer_006153/dimer_006153
  C   1.31574609249393     -2.25579584898811      2.15122671706815
  C   0.95515442765306     -1.65156153451750      0.77817556010552
  C   -0.34311900940951     -2.27954784425842      0.22092468547946
  C   0.92595807630362     -0.08533450748702      0.71291569260447
  C   1.81978257156679     -0.13694895167516     -0.56822389689720
  C   3.03948545617362      0.81297282153730     -0.58941814843321
  O   3.85908944793804      0.45927085513103     -1.70680440637410
  C   2.11033719915712     -1.64374781086016     -0.28209718931652
  H   2.23065389888593     -1.81297128205196      2.52635638614959
  H   0.52333252384291     -2.07357933007408      2.86928901437868
  H   1.46099834297667     -3.32761125798967      2.06845536620342
  H   -1.17257930324943     -2.10196454232012      0.89675069643961
  H   -0.58987621017775     -1.85132402602224     -0.74388350350506
  H   -0.22439057913743     -3.35068398221684      0.09898799113490
  H   -0.04995012808138      0.37051714108291      0.60596492377878
  H   1.44008886854485      0.37121996573894      1.54949112649550
  H   1.24296594876827     -0.00498074021979     -1.47598723384802
  H   2.68874454889750      1.84998416225288     -0.66360663281605
  H   3.58610562778412      0.71295908126238      0.35803262533062
  H   4.62823100833001      1.05787614596283     -1.74054951917259
  H   3.08249009210044     -1.79376032872485      0.16804127486583
  H   1.99863003844046     -2.32234486942242     -1.11794925163520
  C   9.40543284827570     -0.33497600823995      0.00048723235722
  C   7.92622751001631     -0.53587640199354     -0.38955831407700
  C   7.72263476153296     -0.33818469591609     -1.90974786741645
  C   7.25574599448982     -1.86007671915010      0.11648634996244
  C   6.02753718750160     -1.02530873577565      0.60214558996320
  C   5.48130990818649     -1.33675168954382      2.01464837316034
  O   4.52845173214963     -0.32798647621194      2.35682638671884
  C   6.87751704728383      0.27419795716921      0.44941814082243
  H   9.54328384447406     -0.47355758558147      1.06672445795925
  H   10.03619457520358     -1.04672770457976     -0.52169079733598
  H   9.73424102943806      0.66570754204490     -0.25955594157448
  H   8.32970083808131     -1.04266691806562     -2.46781769179559
  H   6.68381187303630     -0.49484782322902     -2.17998475698262
  H   8.00880901703206      0.66581393951639     -2.20352787569204
  H   7.06140143665509     -2.61719875956455     -0.63259182071665
  H   7.80042097053779     -2.30816875484025      0.93804634015185
  H   5.21731161854515     -1.05393648069339     -0.11779833204514
  H   5.02624434999865     -2.33600273921854      2.01975653993474
  H   6.31568868211726     -1.35365578094513      2.72597350760618
  H   4.22756558721423     -0.46329585347493      3.27465479469296
  H   7.27928878080236      0.61314221054872      1.39600312320856
  H   6.40426014462510      1.11113494760526     -0.04597994693895
