36
Coordinates from ORCA-job dimer_009873/dimer_009873
  C   2.03992200084946      1.23553252074135     -0.30925547031524
  C   1.54860541312414     -0.16653629277640      0.09374388130128
  C   2.46444042867905     -1.37102156550327     -0.14623750507393
  C   2.21478629351250     -0.86505954724320      1.27620107207991
  O   0.16184386170276     -0.38335246246473      0.01244773649356
  C   -0.41929555121700     -0.19418825639683     -1.26768760839550
  C   0.16587150699042     -1.06948898859455     -2.34116606098078
  C   0.60780970636953     -1.75226505330394     -3.18454862719964
  H   3.10607596186635      1.30826483961432     -0.11522470300312
  H   1.88355465145570      1.41798381643489     -1.36691591169626
  H   1.51900289936219      1.99672934665793      0.26402415858604
  H   1.99658620570984     -2.30115944830923     -0.43044048068618
  H   3.42765118930701     -1.18389460600700     -0.59898789053850
  H   3.00715094216521     -0.34193094524195      1.78912131104829
  H   1.58006063574905     -1.46134364051395      1.91505594553517
  H   -1.48748225720134     -0.43238779423211     -1.16302121417913
  H   -0.34940398091205      0.85441371092714     -1.59480530045604
  H   1.01250063254487     -2.37997434701813     -3.94994249032706
  C   7.17428491456731      1.52666151760738      0.58624828328294
  C   6.43070615851875      0.21419786594958      0.27246727566118
  C   7.21537320007332     -1.10387578750041      0.24973556152422
  C   6.22825629651922     -0.81327674735823      1.38267742752787
  O   5.35013102173801      0.33092237378253     -0.61419039241280
  C   5.71706073583867      0.60826202321577     -1.96263708690900
  C   4.51589189119819      0.40772960954422     -2.82992774066151
  C   3.57046515008700      0.24662521360436     -3.50248931650476
  H   7.91338070425955      1.35642653519263      1.36210646616419
  H   7.68469447723073      1.90896243311264     -0.29246771042956
  H   6.47038573824074      2.27766788553971      0.93483263436560
  H   6.92400840708221     -1.84666525285171     -0.47816989366652
  H   8.27363547288051     -1.07560972524510      0.46072153074410
  H   6.61339772538250     -0.58544640652741      2.36548148281749
  H   5.29604578639737     -1.36133296666531      1.38049954119557
  H   6.07660633612644      1.64304357661117     -2.07639372485451
  H   6.52553439922051     -0.05933069414439     -2.30037663371477
  H   2.69945514458026      0.09819194136220     -4.10700203732239
