36
Coordinates from ORCA-job dimer_006970/dimer_006970
  C   0.73181963324342      1.71195241868681      0.64296040309052
  C   -0.05773083667828      0.37512892742827      0.51669192461279
  O   -1.42255022711526      0.55624931678966      0.86959321825149
  C   0.01477367613659     -0.16287717871220     -0.95130539985067
  C   1.12508935496804     -1.21017103641176     -0.89802788990594
  C   1.46775269862844     -1.52688045036755      0.32773775980809
  C   0.64285996161596     -0.76802746086418      1.38427636327906
  O   1.35172928253776     -0.31334452396538      2.51562224121866
  H   1.75247051480791      1.57651752311536      0.30503797629548
  H   0.25719246724141      2.47204703850378      0.03163273096753
  H   0.75119253434570      2.05025091495179      1.67353576474265
  H   -1.47213413921465      0.86066946135732      1.79524434798870
  H   -0.93683551781355     -0.62040261414829     -1.21745756268483
  H   0.21178132588688      0.62722048215395     -1.66830704931889
  H   1.52011746212893     -1.65089728784160     -1.80218516627985
  H   2.19752545069425     -2.26843044750483      0.61854041632024
  H   -0.15111199944747     -1.42897685146523      1.75370804958365
  H   2.22013264827593      0.05517762656015      2.24557116044857
  C   4.89691678513829      1.08364683872142     -0.99752223514724
  C   5.27391309841077     -0.27737574523948     -0.33726057659490
  O   4.68578880157708     -1.36325388886302     -1.03271377146599
  C   6.82854857915185     -0.46451062071878     -0.33239735966319
  C   7.24074801874525     -0.04387054305143      1.07622645007525
  C   6.22249041692324      0.06272018249824      1.89535975873652
  C   4.88837617308532     -0.26810525565314      1.21091247682452
  O   3.81774918305347      0.60577932725896      1.54660356916839
  H   5.40284348132205      1.90303013523034     -0.49855997474128
  H   5.20496262112865      1.07326793439270     -2.03789339887737
  H   3.82611006857785      1.25273012258262     -0.95479877208242
  H   3.71766454513016     -1.24406921564948     -1.05464903698058
  H   7.06656515454300     -1.51254312746357     -0.51059201542060
  H   7.31363506965412      0.12055999876473     -1.10705947056114
  H   8.27869775802784      0.10855542419121      1.33885401237940
  H   6.26603837850042      0.31283087537928      2.94513060443039
  H   4.55778196828383     -1.27609708896594      1.48988761760339
  H   4.12796021850424      1.52835084631924      1.57904080974956
