36
Coordinates from ORCA-job dimer_009487/dimer_009487
  C   0.05368237769796      0.16703651445537      1.51531501557361
  C   1.22077183919276     -0.13726752954069      0.55722451822404
  C   2.01663137180979      1.08033112832946     -0.02559075078657
  O   3.24985020285209      0.57844714193517      0.54611878100663
  C   2.60936769761306     -0.55996067143243      1.18357066914907
  C   2.73232741609610     -0.50107731372054      2.72979364495306
  C   3.13300205628671     -1.85617084326082      0.66470241353197
  C   3.53510544371034     -2.87782466988291      0.25628761704428
  H   0.33504072526802      0.90407118301796      2.25859672335814
  H   -0.79208141007182      0.55483164153232      0.95476305056005
  H   -0.26376220993353     -0.73661403690567      2.02706509143482
  H   0.90241089599595     -0.83483473494969     -0.21028282811021
  H   2.05324353428045      1.14571553803941     -1.11814214056267
  H   1.73278805856600      2.05564969873894      0.38357167208874
  H   2.43198555988076      0.47641568603472      3.09048865483565
  H   2.10238684321013     -1.26079689608191      3.18231529618197
  H   3.76423860683261     -0.68397982142744      3.01762408675849
  H   3.90477802569271     -3.81113954455680     -0.11318207832924
  C   6.12882946352066     -0.26911300132353     -1.15912378688654
  C   6.78423196670988     -1.23111251523287     -0.15087646776109
  C   8.34965550906066     -1.31452484101724     -0.14072209030423
  O   8.39061355938309     -0.86350873460903      1.23593963647095
  C   6.94578311892426     -0.73285175733356      1.33938720681783
  C   6.50912883192244      0.72460743031023      1.64578062806738
  C   6.38227750688881     -1.67842012728987      2.34819158767733
  C   5.94274247187060     -2.42656274691263      3.13555207460612
  H   6.65182930234672      0.67926509825613     -1.19229278848933
  H   6.14898192115901     -0.70516468800749     -2.15303211652047
  H   5.09379365891313     -0.08393254076399     -0.88002236796946
  H   6.30611252359707     -2.20288744806643     -0.19752364034030
  H   8.77142614772066     -2.31679979620570     -0.26861193722160
  H   8.85499530048355     -0.62353123425481     -0.82291641969266
  H   7.03179982169697      1.40952310442710      0.98760083580658
  H   5.43714031327274      0.83252100203859      1.49299910787391
  H   6.75384583838125      0.97187576836379      2.67402426590984
  H   5.54165558116690     -3.10967833670294      3.85307560104363
