40
Coordinates from ORCA-job dimer_006147/dimer_006147
  C   0.63791731568519      0.58721605698840     -1.50694935296589
  C   1.12133303568601     -0.59067955471635     -0.63007187222491
  C   0.49165580236807     -1.92036488278682     -1.09495990864936
  C   2.68061076142647     -0.59588547934001     -0.46485388761664
  C   2.52188556007564      0.06800014644198      0.94450588598902
  C   0.99365654670801     -0.27291667908174      0.90023321966492
  C   3.32060133883988     -0.58333625355563      2.09018413133508
  O   4.04473537696695      0.01905674491121      2.84671452575014
  H   1.08363065640174      1.51903393760995     -1.17740511011464
  H   0.91142502009258      0.42381053571770     -2.54397113182318
  H   -0.44105686732644      0.68374162561361     -1.44883954262833
  H   0.76219348253959     -2.12815725841278     -2.12513322549216
  H   0.83295121350153     -2.74449649342102     -0.47865646397115
  H   -0.59039979928043     -1.86976933018414     -1.03070441761112
  H   3.08580761315422     -1.59899366250470     -0.40411031549470
  H   3.24471627023775     -0.02950351848542     -1.19547232072648
  H   2.71399967412816      1.13455439135682      0.93018516279371
  H   0.31983141116064      0.53057416658964      1.17204777973379
  H   0.75045415485314     -1.15067239824677      1.48747311189699
  H   3.17704033598866     -1.67796947558351      2.17376580902415
  C   7.48361838082114      0.64807697010404      2.18590494769678
  C   6.92199854818499      0.49331028778138      0.75433122697213
  C   5.95096069578780      1.64474055253552      0.41994253139382
  C   8.05236730821798      0.23171085047546     -0.30157028000731
  C   7.70153488729183     -1.29474796905192     -0.28543959779171
  C   6.38382685085950     -0.95572058177294      0.49116703710136
  C   7.50776220958158     -1.94939736432423     -1.66707276821553
  O   8.04623974408836     -2.97027011832871     -2.02433918482207
  H   8.17142124178308     -0.15723259700891      2.41706933012431
  H   8.01198165237482      1.59007647212492      2.28494682015190
  H   6.67255125406553      0.62855127204799      2.90809411970497
  H   6.47361352245096      2.59517828009880      0.44447728135992
  H   5.52234892767379      1.51541216763490     -0.56696102803183
  H   5.14686103046058      1.67936613006156      1.14785257704190
  H   7.84330229627974      0.69313825158440     -1.25938652674070
  H   9.06069130022207      0.48833724501899     -0.00048987635903
  H   8.39833828726210     -1.88383649567622      0.29988602187799
  H   6.18412365463294     -1.55871633670156      1.36831372377067
  H   5.51392548884954     -0.96644064971267     -0.15304255909678
  H   6.81388781590387     -1.39848098580123     -2.33094787300004
