38
Coordinates from ORCA-job dimer_001784/dimer_001784
  C   -0.33595470310316      0.58064258161279      0.49287932620162
  C   0.68319441049860     -0.55569037525922      0.62634765393194
  C   2.09810040789613     -0.40372537189747      0.07835845759248
  C   1.86631300771338     -0.45180379756533      1.58467276516000
  C   2.07599537483901      0.81190223567597      2.42374743564535
  C   2.26880634499009     -1.74516320893862      2.31304107947621
  O   3.67534894712766     -1.70119091868233      2.57415240761900
  H   0.15200036810244      1.54801772171194      0.48485832456526
  H   -0.89163055567575      0.47675419061955     -0.43476920536794
  H   -1.04341814161768      0.56136363485607      1.31699730973793
  H   0.24771927348932     -1.53892009597170      0.53456732567339
  H   2.56688325344175     -1.25105170917809     -0.40017751028314
  H   2.36709775998239      0.54749015685519     -0.35238793142857
  H   1.91702811892171      1.70631704627378      1.83416459199432
  H   1.39066076873765      0.82898294204750      3.26573807839706
  H   3.09138680981804      0.83325250931878      2.80783205414627
  H   1.70089139310315     -1.82537527321020      3.24859086899582
  H   2.01244517490264     -2.61149780793378      1.69116213825166
  H   3.93409585581423     -2.46491251870771      3.12369322850049
  C   8.62981081969113      1.73342695038935      0.33464670528481
  C   7.99167685912607      0.41467339476328     -0.11582360709015
  C   8.02403098816657     -0.81463905259539      0.78701566331216
  C   6.70218618045431     -0.10804826115641      0.51215470868235
  C   6.02540379787373      0.68334581436657      1.63698691412852
  C   5.71605098563172     -0.83594097842487     -0.43558743314470
  O   5.13114384223950     -1.99594564147250      0.13817597532973
  H   8.60909053023295      1.83359566429695      1.41310143524166
  H   9.66663105226359      1.77645117251876      0.01394553877877
  H   8.10554010701135      2.58112764535948     -0.09705826313246
  H   8.09910552633273      0.22435715482170     -1.17241115638067
  H   8.18440759857341     -1.78309721136241      0.33920969557454
  H   8.46081729059934     -0.70535867483069      1.76653029787509
  H   6.75339272046926      1.08591028008383      2.32972289289612
  H   5.45106519286711      1.50783776805479      1.22640236576908
  H   5.34737687983668      0.04404056796843      2.19566506087926
  H   4.95493231831631     -0.11839931443753     -0.76692668647292
  H   6.25842634398579     -1.16462582616439     -1.32561313741541
  H   4.67232008934611     -1.76612758080601      0.97326710607489
