36
Coordinates from ORCA-job dimer_005251/dimer_005251
  C   1.10128569775604      1.58032958934222      0.24079635507994
  C   1.26562896876100      0.07002901566465     -0.07412407801932
  C   1.77046074921466     -0.71818315003032      1.16768541142445
  C   2.01728905261665     -2.17845347921075      0.84991535876786
  C   1.49930502000115     -3.26055247356272      1.46143419387743
  O   1.97109713141325     -4.40103928616766      0.88899260744217
  C   2.81427874733752     -4.03816015937978     -0.11132933910615
  C   2.88597594759462     -2.69625123279096     -0.19188946268203
  H   2.05057911484345      2.01060754403338      0.54174402758143
  H   0.74379846130568      2.11943673900791     -0.63051920007426
  H   0.39120710216641      1.72794753578018      1.04761857339775
  H   0.31857689456650     -0.34679207503492     -0.40192123423766
  H   1.96891719503540     -0.05927303305503     -0.88966437868534
  H   2.69182222007378     -0.26571937327109      1.52367610585446
  H   1.04386292140853     -0.63854131682180      1.96955203917984
  H   0.80809307781765     -3.36769778412871      2.28783322867020
  H   3.28750008793401     -4.83303991912908     -0.67615557295724
  H   3.47563615343833     -2.11727899579870     -0.87954669495756
  C   5.35727281067525      2.06298594570934     -0.07947096422199
  C   5.29293028843250      0.51840131942819      0.05139476294568
  C   5.66840634539595      0.05094100963765      1.48687740510671
  C   5.57072807842963     -1.45394603158430      1.63332697104935
  C   4.81258733290155     -2.15494340860042      2.49793294758162
  O   4.99207141465486     -3.48948716011608      2.31304998461540
  C   5.88421102622598     -3.64757260360987      1.30252121111936
  C   6.27912083679361     -2.44453302644563      0.84326542774164
  H   6.35844698815045      2.42327185055004      0.13253106041144
  H   5.08707362489676      2.37629305402471     -1.08276160077943
  H   4.67427078385092      2.53371795508850      0.61960804924976
  H   4.29425842074040      0.17101162736093     -0.18804914127831
  H   5.97022034935609      0.05951794423546     -0.66109182621348
  H   6.68109100562825      0.37708168608267      1.71179743944294
  H   5.01272187610321      0.52723505041803      2.20825656609162
  H   4.11927180625086     -1.84884156548173      3.27102871410386
  H   6.14323809024425     -4.66231947286750      1.02246007383014
  H   6.97939715498355     -2.24741498927648      0.05125760364749
