36
Coordinates from ORCA-job dimer_006435/dimer_006435
  C   3.36860910581013     -1.32923018473104     -1.05330618117913
  C   2.02715764545504     -1.12197247101626     -0.31233067428852
  C   1.93300794624243     -1.73786602844315      1.13261798045033
  C   1.29514145108749     -0.39983710675226      1.63879672030705
  O   1.80690848485492      0.05577022064590      2.87601159227172
  C   1.79539777902304      0.30093734170434      0.31667781146902
  C   0.88295656188162     -1.53741586629699     -1.15920202915249
  C   -0.02292603624532     -1.86593416647777     -1.82423738698265
  H   4.18677174762935     -1.02668904079503     -0.40915207683246
  H   3.49535976667742     -2.37394844406279     -1.31900067971754
  H   3.39465813421516     -0.73532655365753     -1.96144798776464
  H   1.34122429321917     -2.63898701400808      1.24348256525284
  H   2.91884359431559     -1.88895645436497      1.55983828050533
  H   0.20181290808338     -0.46982551477979      1.65125681535751
  H   1.35047598591847      0.87613501915120      3.14068665539262
  H   2.73745903750236      0.81608574153615      0.47161745566666
  H   1.09786747513011      0.95097727342565     -0.19792121220930
  H   -0.84873040357849     -2.16493158405396     -2.43240564835116
  C   8.24343760033818      0.72251635300819      1.21796326911163
  C   6.98663962911149      0.12662807707325      0.53513900355277
  C   6.71824832366595      0.75747763511005     -0.88105538505414
  C   7.24955816027017     -0.54927619684260     -1.56575441962179
  O   8.52388668285014     -0.32611291071107     -2.14711908091060
  C   7.27628311498626     -1.25662190132616     -0.15486719432905
  C   5.82464464968856      0.13382962603356      1.45128548809577
  C   4.89143011809179      0.13209817266608      2.15882610755983
  H   9.07617114233710      0.71023393206982      0.52154693143396
  H   8.05572877660812      1.74697059590807      1.52323987152635
  H   8.50739120284853      0.14136913517540      2.09575697376551
  H   5.66964677514717      0.94933810333426     -1.07749142431755
  H   7.29951984300386      1.64554432681457     -1.10321268592032
  H   6.55159617438978     -1.00122166060936     -2.27862912205016
  H   8.87980272745626     -1.16960643519759     -2.48446611841602
  H   8.22156385730849     -1.71012549743089      0.11932380944326
  H   6.47825755933286     -1.97805883411935     -0.02179243091103
  H   4.01711718534241      0.12610831202042      2.78292840684636
