36
Coordinates from ORCA-job dimer_006868/dimer_006868
  C   0.63333289220455      1.45008595170019     -0.97188134520212
  C   0.83029795228912      0.09227159380371     -0.25151209337463
  O   -0.30493115821921     -0.13482815847529      0.57145312777971
  C   0.98568964884665     -1.08385843610716     -1.28413834999516
  O   1.25955704141501     -2.29512485436192     -0.58265614412313
  C   2.44195464229377     -2.21592742512274      0.20289740423575
  O   2.34490157368838     -1.19376569309326      1.18823445766384
  C   2.13851458508215      0.10059475959061      0.62027488955244
  H   1.48417942712522      1.67097844611446     -1.60835258193282
  H   -0.26579031543721      1.41858020331300     -1.57924510018887
  H   0.52583896370280      2.24294574001745     -0.23830621041763
  H   -0.19299722328927     -0.99488394763450      1.02200840884084
  H   0.05001225783081     -1.22248433714085     -1.83307594543807
  H   1.78083813623642     -0.84864582493391     -2.00205498979863
  H   2.55549346864743     -3.17698718038206      0.73183355347030
  H   3.33035888718683     -2.05313263332519     -0.44062603473112
  H   2.99740357960139      0.40458758741891      0.00648162522619
  H   2.02491872660703      0.80808143607818      1.44575585014546
  C   5.87017208576195      1.47436104066776      1.04263737879957
  C   6.05467940256061      0.16260024031800      0.23971762340356
  O   5.16283889771987      0.18674941101691     -0.86783078384945
  C   7.52710385389356      0.00561158964552     -0.28784558483719
  O   7.63781854757397     -1.24403782248471     -0.96722214830031
  C   7.33078476274878     -2.35366445413858     -0.13004507495787
  O   6.00129893473869     -2.28012945276934      0.36673426360781
  C   5.76371384572472     -1.09976339277751      1.13314972741021
  H   6.54738837891749      1.50047115778198      1.89016049572515
  H   6.06957978043103      2.33005533614175      0.40484032022701
  H   4.85024169764924      1.54401294544946      1.40782122081087
  H   5.38797084883407     -0.55918468213016     -1.45806059239026
  H   7.75489905999370      0.79690689207998     -1.00806030148101
  H   8.23833559284069      0.07696367439712      0.54379503670199
  H   7.40655501658861     -3.26487288782291     -0.74726069293684
  H   8.05708122927432     -2.42123724050553      0.70567402995490
  H   6.39345678208381     -1.07349845373103      2.03047655129715
  H   4.71418875285252     -1.10809330459827      1.44651426310234
