38
Coordinates from ORCA-job dimer_007652/dimer_007652
  C   1.94828643028674      1.26739091366019     -0.51311720807507
  C   1.62759083185305     -0.14446214410886      0.01948848846572
  C   2.48832474705909     -1.31718206010333     -0.58750861935247
  N   3.01779225836702     -1.55226890136673      0.75232003324465
  C   2.25327558024611     -0.50380609231921      1.42040517715036
  C   3.88510518014834     -2.52613762786791      1.19986545583903
  C   4.19047678392290     -2.43530175216455      2.72120441925384
  O   4.36357117460994     -3.35880086121126      0.45951072844953
  H   3.01519050007876      1.45859552969862     -0.46733581922325
  H   1.62629772502542      1.36456834656975     -1.54575323170345
  H   1.43739406974417      2.02268664481079      0.07663482394558
  H   0.56095645216755     -0.33536415338716     -0.02551255974524
  H   1.91738014678970     -2.15194691786044     -1.00051075537680
  H   3.23682194624101     -1.00625652809078     -1.31897677521466
  H   2.85662327854655      0.28899214769551      1.86691754717295
  H   1.54014349821781     -0.86322346563559      2.16550520804909
  H   3.27563710065514     -2.56044238609420      3.29525911228043
  H   4.89440225296300     -3.21587493711418      2.99323359417042
  H   4.61735386204126     -1.46422707620212      2.95870704710719
  C   5.95101280699555      0.33743858940707      0.01191550249943
  C   6.57813279102427     -0.98970016907305     -0.46177718114412
  C   7.99463147861516     -0.86576222016418     -1.14219553683257
  N   8.53609022707966     -1.65093059263113     -0.03744356791392
  C   7.26826803347039     -1.85593780513687      0.65732957170007
  C   9.81227662190045     -2.13556008751682      0.15882552168249
  C   9.95197044605251     -3.01108572250672      1.43649293159436
  O   10.72638287267048     -1.88815156180521     -0.59876570816748
  H   6.66182887083798      0.90443038278080      0.60372349276394
  H   5.65683346673861      0.94258166409516     -0.84000451652804
  H   5.07100009180420      0.14650559750103      0.61629497997776
  H   5.86845117922909     -1.56188038094389     -1.04984981752381
  H   8.08466899362793     -1.34368631705063     -2.12028799928241
  H   8.38810964950711      0.15026078354093     -1.21010734262467
  H   7.22512969037890     -1.42831148723018      1.66026147582953
  H   6.92742086816613     -2.89354509762905      0.69894133427355
  H   9.30379760879158     -3.88107092417052      1.36414015153475
  H   10.98268005401749     -3.33693564575362      1.53703399226212
  H   9.66587739612846     -2.43904519162158      2.31520266846114
