44
Coordinates from ORCA-job dimer_006527/dimer_006527
  C   0.75552974619557      1.80902252771268      0.76863634225867
  C   0.92469187439810      0.34554063309746      0.33547841525219
  C   -0.42614176711862     -0.33030317180854      0.05323263197543
  C   2.12916868549266     -0.02694795562319     -0.52385479888409
  C   2.07180200743283     -0.47044988115980      0.93387473730160
  C   3.02032016729555      0.17195027720882      1.95210937940460
  C   1.83364046038327     -1.96316274708739      1.23130718871893
  O   3.10336588437449     -2.61370292280023      1.31521723449552
  H   1.70594519265492      2.32189432396317      0.83782626566931
  H   0.14167894933484      2.33720489999712      0.04602819319931
  H   0.26385024833733      1.86455768882668      1.73507343130861
  H   -1.00840825361359      0.28804865365411     -0.62250728823219
  H   -0.30881485917493     -1.30231809272593     -0.40763490814577
  H   -0.99262276307230     -0.44919393986256      0.97188967314234
  H   1.99934446003087     -0.77538575960406     -1.28890738968900
  H   2.82689883433613      0.75065997491874     -0.78933853232920
  H   3.27148022990922      1.18813798634162      1.67967400344691
  H   2.56825808700776      0.18260560272554      2.93895000145421
  H   3.93979270274552     -0.40281374860132      2.00146605140132
  H   1.28052150227758     -2.05393880441979      2.17539384486880
  H   1.21858168600111     -2.41156233931705      0.44626944729157
  H   2.96444913043257     -3.56331691448467      1.48872419267722
  C   6.09453091592540      1.09131352717055     -0.31978914235609
  C   6.49916504540495     -0.36798425237168     -0.06857589030296
  C   5.63592766829391     -1.35908689848631     -0.86614116918165
  C   7.97584185495074     -0.68553817389367      0.15266210979904
  C   6.99907114204210     -0.76114738086258      1.32126001479909
  C   7.08315431063716      0.29103879238547      2.43339278600107
  C   6.62252667715861     -2.15224938009813      1.86455283286702
  O   7.55933541738979     -2.50234514575484      2.88673402376866
  H   6.77041111089345      1.78601257859924      0.16133504780891
  H   6.10285802495399      1.29755503183912     -1.38513073560259
  H   5.09227666780616      1.27344543944033      0.05275839141546
  H   5.52422052308435     -1.00840157005500     -1.88639864897608
  H   6.08349533756490     -2.34352081282747     -0.90228022467587
  H   4.64709122162644     -1.44842056970634     -0.42300112183006
  H   8.36481998415858     -1.60849443306366     -0.24562204810157
  H   8.68171918397952      0.12883530911081      0.13718993478344
  H   7.52066737907763      1.21418516564616      2.07698513967758
  H   6.09638848421909      0.50747037779410      2.83009604195158
  H   7.70149475193177     -0.09031918635215      3.24050522631482
  H   5.59614178099063     -2.11791060377335      2.25432441449113
  H   6.63611149654883     -2.88716877523526      1.05529232631604
  H   7.30557006669986     -3.36249563345660      3.26971080444646
