36
Coordinates from ORCA-job dimer_004067/dimer_004067
  C   0.96258077529232      0.67245008724625     -0.71472166907547
  C   1.78962848323308     -0.61794362689285     -0.46145678205132
  N   2.02606165311176     -0.79053103032547      0.96845638644632
  C   2.79278948182797      0.22354751476876      1.73604171496797
  C   3.50125659648435     -0.94633903073551      2.43964531330506
  C   2.82191041107634     -1.93687955123006      1.47547698635142
  N   4.30060877678743     -0.98626902329756      3.40770165752269
  O   4.72186048244948     -2.25463435569537      3.73711497645808
  H   1.51528049507726      1.54713414997323     -0.38833830709390
  H   0.74105981803405      0.78198212198692     -1.77144589626040
  H   0.02898408748014      0.62964288716470     -0.16334661099912
  H   1.23214762621052     -1.48376594820752     -0.82062418745859
  H   2.71942930123094     -0.57021423099189     -1.03613709159202
  H   3.48108271468718      0.83645757931527      1.14139025773090
  H   2.18342688608361      0.87187246054890      2.36910131575257
  H   2.23363829069159     -2.73314569333242      1.93774000036458
  H   3.51652209227931     -2.38392500564860      0.75731500552569
  H   5.38943500881176     -2.12434125728243      4.44815567697835
  C   5.55670332727187      3.56963622512010      0.16107102182477
  C   5.89443642549544      2.27944113252942     -0.63589758856417
  N   5.65586007260106      1.10083556007113      0.19261248126742
  C   6.44314321468975      0.87324104679886      1.43187177326168
  C   6.51584628779723     -0.60906394785883      1.02695938685648
  C   5.89518347676059     -0.26396214909158     -0.33944298867025
  N   6.88371226765354     -1.63779593082665      1.64681307650312
  O   6.73988344348074     -2.80187587532389      0.92754427775078
  H   6.19927213991276      3.65971115187349      1.03073899305712
  H   5.69603298589893      4.44873778801963     -0.46012177872104
  H   4.52596612052555      3.53941091150247      0.49905536208985
  H   5.24840560515025      2.21372165152042     -1.51215819553823
  H   6.92621289689675      2.33107132146058     -0.99757139399880
  H   7.41877813071261      1.36783874456468      1.45636835550855
  H   5.90926313552897      1.08773096878195      2.36131873843973
  H   4.99448920207602     -0.81583141834398     -0.61436849431080
  H   6.60908781763397     -0.32262252642652     -1.16682325659965
  H   6.97131483306430     -3.52369443573566      1.55538951797057
