40
Coordinates from ORCA-job dimer_006982/dimer_006982
  C   0.42349218992324      1.08780578021523      1.02748850403394
  C   0.77280117266763     -0.31943846978600      0.47399441788872
  O   -0.32748243594316     -1.21986585984166      0.58465916593366
  C   1.30925826611876     -0.30092789505128     -0.98880285230134
  C   1.99567096826961     -1.68711279884544     -1.15731845171570
  C   2.38082247398065     -2.15981264946650      0.28343189798335
  C   1.94927203642477     -1.01047721875936      1.25591902823081
  O   2.99435020828616     -0.11176371782599      1.56881036946004
  H   1.30706436240463      1.71687250636547      1.02681834787425
  H   -0.34325987715955      1.56111895370141      0.42295033728492
  H   0.06258550363871      1.00427789324504      2.04750952500320
  H   -1.09082149700386     -0.85746403252139      0.09944533298314
  H   0.51789128020154     -0.14009168490254     -1.71109059326041
  H   2.02331936842149      0.50672773076460     -1.09761765216940
  H   1.30503181325550     -2.39135949882554     -1.60643060327516
  H   2.86184825334873     -1.62864857878620     -1.80488675368843
  H   1.84958291646745     -3.07034580015620      0.53596398064849
  H   3.44207242920543     -2.35852152101709      0.37786560154176
  H   1.56602289824523     -1.41000174521931      2.19768854543802
  H   3.52718025189297      0.08554705991862      0.76975604237986
  C   6.52594003971198      1.92204647423672     -1.01241768349218
  C   6.11489869845443      0.54833741652460     -0.42030354443226
  O   4.71946026861285      0.30248531169975     -0.61168224202696
  C   6.95160803503436     -0.64664265296503     -0.96196977759059
  C   6.67165275582206     -1.79547496282419      0.04732266451925
  C   6.27712744732519     -1.09916312193904      1.39048014953382
  C   6.35977796898847      0.43951612808952      1.11943093336671
  O   7.65968701960258      0.96207432651663      1.37132893975273
  H   7.56774962930769      2.12225674713196     -0.78379513756656
  H   6.39680351269917      1.92643549788905     -2.08996513788448
  H   5.91739389045214      2.71159705778742     -0.58325206286424
  H   4.51688499573985      0.29140684248259     -1.56384509049046
  H   6.68420488143755     -0.90660802951520     -1.97956560858631
  H   8.00042430740836     -0.37055700831138     -0.94775229387222
  H   5.85798741409391     -2.41892670884179     -0.30536963942001
  H   7.54025651152142     -2.43268991592847      0.16676086524109
  H   5.26777171610085     -1.36411237219497      1.68915144125523
  H   6.94197753993607     -1.37947356126552      2.19959500477628
  H   5.58894320721031      0.98876346095547      1.67169540271446
  H   7.85790557789436      0.88242261726608      2.32215262679297
