44
Coordinates from ORCA-job dimer_009550/dimer_009550
  C   1.82495298830051      1.81865439897665     -0.09116853480073
  C   2.03998516142935      0.28369435224619     -0.03568160753031
  C   1.94850478809775     -0.38075197057810     -1.42853796805823
  C   0.57262676976008     -0.15896514376331     -2.09007898353346
  C   3.19099562652235     -0.08273608042244     -2.33888937466600
  O   3.65793230709261     -1.44575089823963     -2.18976918761174
  C   2.46397755280127     -1.87016225524762     -1.48210701596542
  C   2.75345571229921     -2.63301999845355     -0.16684895792148
  H   2.49694864725357      2.27494287677132     -0.80981119409823
  H   0.80747760605276      2.06354487519617     -0.37256337045118
  H   2.02011008599985      2.25986494080304      0.88088262201102
  H   3.01633023126746      0.08258083234748      0.38811658448416
  H   1.30362315218666     -0.16453369702114      0.62323044165311
  H   0.40107576442728      0.89420402454161     -2.28117783598370
  H   0.51543515581802     -0.68750067982708     -3.03519162789859
  H   -0.22025865534475     -0.52240328700112     -1.44449491379852
  H   2.94870465606932      0.16725449373658     -3.37660952414206
  H   3.89927108213583      0.65381724749466     -1.95093770103431
  H   1.83179577015651     -2.49146703107932     -2.12414786979937
  H   3.43754557073959     -2.08239578784981      0.46748652479809
  H   1.82785698008064     -2.79898594879098      0.37623672329876
  H   3.19830738418571     -3.59786626576940     -0.39258149974263
  C   5.96327300626221      1.02265500117157      0.55001664567247
  C   6.10828171520248     -0.43429990378804      0.03809517511339
  C   7.30591170971438     -0.61905128418334     -0.91982061064270
  C   7.23915949362086      0.33464736681362     -2.13035277213842
  C   8.69273090630479     -0.68851648171223     -0.18844846332459
  O   8.81259998415973     -2.09845851623981     -0.49541187760735
  C   7.60697594934651     -2.11675380541664     -1.30438853892261
  C   6.59422273988889     -3.21621543834087     -0.90557859323638
  H   6.89906160318321      1.37796325749111      0.96800468893758
  H   5.67307401642660      1.69346747591947     -0.24967356806175
  H   5.20567167593428      1.07789856618752      1.32464580974927
  H   6.23430809792543     -1.09469225333240      0.88739116219926
  H   5.20493827336537     -0.74051313885083     -0.47821278063461
  H   7.29861944968232      1.36981978875834     -1.81549762516701
  H   8.06097088459540      0.14061610364006     -2.81032389409016
  H   6.30773860747740      0.18880783187327     -2.66795190316422
  H   9.48581498999270     -0.08873095482712     -0.64561111596010
  H   8.67142568909995     -0.48887780936361      0.88653656898109
  H   7.84973638988877     -2.22191048841206     -2.36607693232320
  H   6.40530275897697     -3.20557905204346      0.16093865031358
  H   5.65713408312115     -3.05322428561707     -1.43297197566290
  H   6.98466010049765     -4.19259669679750     -1.17542497823960
