44
Coordinates from ORCA-job dimer_007497/dimer_007497
  C   2.76005515671484      1.59208000699668     -1.51986911186903
  O   2.31761136072997      0.38048252045066     -0.92557558228171
  C   2.68133078044582     -0.78262051123143     -1.65754086496621
  C   2.06524220584746     -2.02499734262119     -0.96804834893976
  C   2.54546303916451     -2.14625835331567      0.49032423098321
  C   0.51688749738318     -2.09262275933757     -1.19034129532085
  C   0.73694074057934     -3.15072597329459     -2.32269431693491
  C   2.22920806000071     -3.29438675891820     -1.87389716998478
  H   3.85317030941875      1.63189463136186     -1.61166788219834
  H   2.33038919672651      1.74063776998533     -2.51905130961290
  H   2.43692218072619      2.41804563576976     -0.87860622543615
  H   2.31805220623224     -0.72324503128417     -2.68955428163236
  H   3.76998535328259     -0.89339649917404     -1.70071417927091
  H   2.23305208674138     -1.27459217735460      1.05572143745721
  H   2.12087107775762     -3.02985128239914      0.95268449799156
  H   3.62801163606443     -2.21578062472219      0.53959195678701
  H   -0.00495721991984     -2.50011623108418     -0.33328024323208
  H   0.04315902803484     -1.16190772339821     -1.47737122556910
  H   0.13396377306000     -4.04838665487526     -2.25894220301698
  H   0.63273278780272     -2.73514489606419     -3.31794484843769
  H   2.97748614093402     -3.22858859730943     -2.65413800008493
  H   2.40935538427815     -4.19236475675784     -1.29569653536586
  C   5.23928507230103      0.05607552508593      1.37390859145339
  O   5.92300777740725     -1.00702458732143      0.72277208763472
  C   6.56239233308678     -0.62573487607026     -0.48592512309213
  C   7.21404297875384     -1.88333328437097     -1.11498023424892
  C   8.31542341654952     -2.44176227148305     -0.19472101946922
  C   6.13167743434540     -2.90488848853162     -1.59917382075710
  C   6.30933297180428     -2.37970556358953     -3.06262915351500
  C   7.60317574358151     -1.62370003034680     -2.61137664229453
  H   5.91165966647123      0.88959978100164      1.61336300027367
  H   4.40777408721742      0.44111375034138      0.76811105592198
  H   4.82790738020789     -0.33654862195624      2.30868644952795
  H   5.84360778488713     -0.19420315309759     -1.19027767164959
  H   7.33240632157537      0.13333843743605     -0.30330130822413
  H   7.89444012225520     -2.69585813241325      0.77325268005853
  H   8.75688531804609     -3.33230794910021     -0.62739907226829
  H   9.09939342716332     -1.70677334009417     -0.04634855003008
  H   6.45683715435062     -3.93160758419276     -1.48465095187808
  H   5.15039357627237     -2.79896937508066     -1.15476217633664
  H   6.44151594391561     -3.13381910215774     -3.82898127675850
  H   5.51553706357805     -1.70997941141283     -3.37111721253486
  H   7.68944462336834     -0.58637186787318     -2.91010843340469
  H   8.50942402085456     -2.14428624619447     -2.89582371747248
