38
Coordinates from ORCA-job dimer_009721/dimer_009721
  C   1.97096268198641      1.06191296706900     -1.02174137027823
  C   1.43846660707909     -0.16190667083812     -0.23244612222199
  C   1.37524606973077     -1.46181693958782     -1.08483262711049
  C   1.28372455134809     -2.60880753601779     -0.03892311672472
  C   1.91243658020659     -2.04072950327733      1.27764130843802
  C   2.36435784036308     -0.59286110889595      0.93990145850523
  C   0.07918700067406      0.13780335526164      0.30876676274388
  N   -0.95207856472758      0.36265019017722      0.72144733510764
  H   2.94493453122976      0.82278592084309     -1.43637508256741
  H   1.29884366642930      1.31095730774522     -1.83690605905276
  H   2.06394700790748      1.92718799812500     -0.37332678652942
  H   0.54462873341400     -1.45779330820981     -1.78103924023445
  H   2.29779912375922     -1.53677473838240     -1.65330727606944
  H   0.24902487132405     -2.88663221250011      0.12880544555471
  H   1.80663677951735     -3.49307415648080     -0.38458351301313
  H   1.17424136696270     -2.02798882061009      2.07197013910229
  H   2.74663688289875     -2.64280534837478      1.61820474191052
  H   3.38354427169135     -0.59352060237147      0.57466006656446
  H   2.30208469499411      0.08005385423130      1.78710356111370
  C   5.82844398489383      1.59174578662443      0.27295276956331
  C   6.41628186507285      0.18747077329528     -0.02326477708111
  C   7.88153825914009      0.22612692180350     -0.54419406204750
  C   8.40577947843954     -1.22256358482110     -0.33381415900847
  C   7.53823753287638     -1.82965324755128      0.81972694897047
  C   6.54774744484313     -0.70844943604725      1.24192706062121
  C   5.56233134794942     -0.51310890334266     -1.02758480645562
  N   4.90687364447988     -1.04417689870622     -1.78409866564492
  H   6.45556323753726      2.09784284739288      0.99960919027209
  H   5.79118665664222      2.19070630058546     -0.63188884698329
  H   4.82410271098956      1.51076714829419      0.67700747452624
  H   7.94455564115510      0.55333989729390     -1.57588816443864
  H   8.43888299038792      0.92735245190922      0.06723624225655
  H   8.28249340335010     -1.80239965270662     -1.24208981730104
  H   9.46152670688712     -1.22491724062376     -0.08816060058906
  H   6.99333208930808     -2.69709807794708      0.46346003379219
  H   8.14743402365612     -2.15036213015463      1.65699025776916
  H   6.96909373632699     -0.10598552646507      2.03924302212142
  H   5.59213254027531     -1.09292317373915      1.57956021841859
