44
Coordinates from ORCA-job dimer_006542/dimer_006542
  C   -0.48418438335598      1.36203209347394     -0.54523269758512
  C   0.59723585891750      0.41352097651816      0.03263109938515
  C   1.76364883053395      1.26137864033987      0.60798658563960
  C   -0.03174952518432     -0.45127011345287      1.15834574800595
  C   1.18002061947031     -0.53975935275418     -1.03650673225073
  O   2.14198080180426     -1.37056215735328     -0.43381328751321
  C   0.30634714328721     -1.10869256888263     -2.15568152317042
  C   1.39685275306277     -0.07664866457778     -2.47785307465526
  H   -0.08150337272194      1.99566155113562     -1.32517968200250
  H   -1.32579995276744      0.80885754809521     -0.94232543622050
  H   -0.85142003225066      2.00268741424324      0.24809190846310
  H   1.39793300672801      1.92259581594399      1.38511015191144
  H   2.52343902116993      0.61415266977765      1.03062117482717
  H   2.21433405015846      1.86256165566537     -0.17347280628841
  H   -0.84317932171188     -1.05180013237868      0.76334268510802
  H   0.71396100475812     -1.11417124316150      1.58264303730694
  H   -0.42241255300453      0.18457890967076      1.94438091534623
  H   2.56096106161561     -1.94342613743947     -1.10150228871334
  H   0.47924626359739     -2.12954806947822     -2.46160234257868
  H   -0.72608552076926     -0.80881037200786     -2.22451543342622
  H   1.10039622452549      0.91963433689370     -2.76107118115041
  H   2.27939762630052     -0.42450187810710     -2.99325558645052
  C   6.01233930252439      0.88680645735399      0.70087331801800
  C   6.06073497792495     -0.19337593587107     -0.40991846616809
  C   5.62190116759290     -1.55692749926864      0.18918850037376
  C   5.09468810366475      0.21290665898223     -1.55484927999678
  C   7.47663949133017     -0.36224476158896     -1.00893469642310
  O   7.43961256403718     -1.35456040531962     -2.00632050179380
  C   8.41028307341966      0.83550703859033     -1.19321819532208
  C   8.72750694255012     -0.23446567769498     -0.13800075362403
  H   6.65266051262323      0.62774183410212      1.53431065971044
  H   6.30347193682499      1.85882374850616      0.32385662553348
  H   4.99676456443809      0.96396355306381      1.07158972568765
  H   4.61214764157851     -1.48316575763827      0.57945623222256
  H   5.64841431488946     -2.32701716694912     -0.57285747457432
  H   6.28739535005593     -1.84638762397741      0.99411068731522
  H   5.37493851020863      1.17658992947688     -1.96363654108032
  H   5.12716311685099     -0.52212710832551     -2.35042463153865
  H   4.08190973488710      0.27422625571101     -1.17340137313957
  H   8.32800717066547     -1.48510250770364     -2.38412494186640
  H   9.02876175351171      0.86226184392646     -2.07754743934241
  H   8.09190496692191      1.81011657417308     -0.86277519909628
  H   8.62057046304569      0.01935094147033      0.90356758386284
  H   9.55311773628980     -0.90153531318316     -0.33475107274627
