44
Coordinates from ORCA-job dimer_007578/dimer_007578
  C   0.60083968709403     -0.42568306971618      0.18230984266377
  C   2.08127946447562     -0.33019603340366      0.63352132230469
  C   2.43344679473635      1.10375324605321      1.10498605868488
  C   2.40658872063526     -1.37741435653009      1.73532121305486
  C   1.60000207931820     -1.18118465375431      3.04246386635488
  C   2.45591373698628     -2.86012835658308      1.22377464856337
  C   3.97612115596261     -2.79272095569427      1.58819333310884
  O   3.83627426323211     -1.41367320456324      2.00339048577202
  H   -0.06540259338942     -0.10781310374449      0.97542975430941
  H   0.43130933272221      0.21679853967932     -0.67509422805621
  H   0.34284593686877     -1.44134770656137     -0.09664935621992
  H   2.71462157144920     -0.57185476702773     -0.21373706186898
  H   1.73950869883544      1.44409907783670      1.86407729576499
  H   3.43671195064580      1.13034884179314      1.51759105420513
  H   2.38388435193104      1.79429866447633      0.27004524183886
  H   0.53853617837980     -1.30220514141894      2.85695197105734
  H   1.90882625787030     -1.91734408224893      3.77679838060562
  H   1.77504718209959     -0.19361690543511      3.45411716639788
  H   1.86900872343578     -3.56866448640547      1.79596354422215
  H   2.24435916207425     -2.98415515554523      0.16852329578162
  H   4.29022772414724     -3.45038517387225      2.40561983377741
  H   4.66904797459338     -2.91702442090622      0.75022324505470
  C   5.66124214712786     -0.09420888415202     -0.90102776802239
  C   7.15397815654324      0.18956725049631     -0.59570481616346
  C   7.49856895064528      1.68511423772421     -0.81194406956491
  C   7.53535157125312     -0.26657220004968      0.84132618849015
  C   6.72321481960420      0.43063240491466      1.95936862345342
  C   7.65162666474591     -1.82186518534679      1.01182253893477
  C   9.17728657480632     -1.54852201746727      1.22764991254846
  O   8.96976405662704     -0.12745821508372      1.05092977383104
  H   5.02076282778490      0.52557331996184     -0.28563116136727
  H   5.44464921335870      0.12224597800899     -1.94137993472368
  H   5.41581814099260     -1.13172933253571     -0.70804186133780
  H   7.76338725868766     -0.39587858049904     -1.27622407718905
  H   6.84267971304835      2.32248722216466     -0.23156008466224
  H   8.52422111010784      1.87885549506973     -0.51390564506079
  H   7.38488136834705      1.94809454076215     -1.85786447943184
  H   5.68830495272811      0.09845888898875      1.93319209167267
  H   7.14108296465953      0.16746401594138      2.92480434249577
  H   6.76000867116260      1.50797676677709      1.85276183940445
  H   7.12716443978472     -2.22735473504783      1.86869857830553
  H   7.40667176034898     -2.40007038795768      0.12954538370368
  H   9.56239923760417     -1.80042843906281      2.22119625211971
  H   9.84407650592743     -1.97684635903531      0.47214596818631
