36
Coordinates from ORCA-job dimer_006489/dimer_006489
  C   5.85029493128204      0.72039443219303     -0.85050603408411
  C   5.04140157360156     -0.36615060955167     -1.60449385538842
  O   5.37775839397697     -0.93209748310605     -2.61290127379303
  O   3.84968940241750     -0.60401769823627     -0.97408271669760
  C   3.00254379709476     -1.58262605860646     -1.52953357142766
  C   3.45751646262034     -3.03152213074707     -1.28286515540389
  C   1.51576411585178     -1.23468251547831     -1.48395437443441
  C   2.26330993413421     -1.22201703534363     -2.81984775198295
  H   5.49589914407698      1.70578452483294     -1.15009736108472
  H   5.70316928503045      0.60967971457495      0.22108322857985
  H   6.90563942389377      0.61937624257317     -1.09826829950874
  H   3.58045874819072     -3.20795450786189     -0.21759897598669
  H   2.71244330373336     -3.72078211078157     -1.66669396917532
  H   4.40139380858150     -3.22673952295779     -1.78443623782602
  H   0.81521272531452     -2.03201337408301     -1.28407424309553
  H   1.24361289330002     -0.28110757095557     -1.05398743530533
  H   2.47284965726072     -0.26111204859236     -3.26728271371400
  H   2.07622003073453     -2.01199697733908     -3.53241464162797
  C   8.15389986242289      0.48452224389303     -3.91157514426844
  C   8.50967965785061     -0.94470112125398     -3.43127759679029
  O   8.83373252388507     -1.86864824141981     -4.13014485599967
  O   8.40970875312122     -1.03622996977330     -2.06575158868864
  C   8.64422668999158     -2.29943128004310     -1.49097530483509
  C   10.13060508978467     -2.68321390858242     -1.38680213245863
  C   7.67994240748734     -2.68718630575272     -0.36986876830543
  C   7.59237792677517     -3.38293940904508     -1.73015798919624
  H   7.07898725926741      0.62824511076882     -3.80604050181193
  H   8.67229670631994      1.22152821142854     -3.30274111059826
  H   8.43476121230468      0.59710529604910     -4.95548069719597
  H   10.67588706067764     -1.92457607397513     -0.83203594108776
  H   10.23079433451486     -3.63231769466061     -0.87060720670527
  H   10.56602527207853     -2.77956148282832     -2.37824506126813
  H   8.07991898184923     -3.23380931582394      0.47110052397861
  H   6.90122511200090     -1.98522844299518     -0.11336585403095
  H   6.75869311058909     -3.12706019718621     -2.36990462647826
  H   7.92926013198137     -4.40524721133261     -1.81802475330250
