36
Coordinates from ORCA-job dimer_006811/dimer_006811
  C   1.43183627454105     -0.58628935587386      2.74339053210555
  C   0.75776855336393     -0.23945679577023      1.39956216019574
  C   -0.77705869022604     -0.35947868948594      1.48706907090846
  C   1.31841288747524      1.08557561065123      0.76360340707163
  N   2.14742133019472      0.26267675787584     -0.14389473929310
  C   1.41373402561373     -0.97765348949526      0.16495126675557
  C   2.27770700750998     -2.16039179753387      0.46203109912410
  N   2.94033277270712     -3.05132096783638      0.69452503132670
  H   2.51075039584734     -0.50599885391094      2.66448475571140
  H   1.08879294624658      0.09743064072327      3.51306055780450
  H   1.18284661100014     -1.59844618832177      3.04621908002775
  H   -1.16077300426456      0.31566523927443      2.24567021111472
  H   -1.24197784472347     -0.11059577154334      0.53926639438527
  H   -1.06157465433067     -1.37194339966369      1.75692429002738
  H   0.54877014638528      1.68070453653628      0.26897326406352
  H   1.88559618856450      1.73042706602670      1.43431063041480
  H   2.26648174272063      0.53733705704131     -1.11287193903112
  H   0.66989474858798     -1.27757663763419     -0.58014501470058
  C   5.33023075244442     -1.08210809026617     -1.42393003378064
  C   5.88923178634043      0.00532885099027     -0.48405983091807
  C   5.45791684034259     -0.22669412789290      0.97667161486427
  C   7.41275512291189      0.29500378844365     -0.75142327045422
  N   7.00731252535450      1.46949516304880     -1.55419290864856
  C   5.63557395139385      1.46975324167391     -1.02224225705310
  C   4.54856569218735      1.64343415264615     -2.03286837176720
  N   3.70631170143269      1.76149679203822     -2.78360635975914
  H   5.63534019451281     -0.89472442781503     -2.44812661428749
  H   5.70113832458891     -2.05585909193436     -1.12034810492293
  H   4.24742095648387     -1.10215974791921     -1.37639526240021
  H   5.75497878104137     -1.21800442815612      1.30415182520520
  H   5.90548902933753      0.50723973251885      1.63713003457836
  H   4.37605829874621     -0.15033861621831      1.04497307208301
  H   7.96712837038327      0.53059990591084      0.15879175802395
  H   7.95336389347836     -0.47020871863077     -1.30768396978949
  H   7.54925085439886      2.32491265726706     -1.53401634702916
  H   5.45064948740738      2.17667800323382     -0.20707103195606
