36
Coordinates from ORCA-job dimer_006818/dimer_006818
  C   1.55510822370695     -0.04161181530388     -1.08580924497133
  C   1.27587616544931     -0.53223013639539      0.36033338430689
  O   -0.09932577065767     -0.51866252425345      0.68078197121424
  C   2.08664570464384     -1.84171347430023      0.71532239918506
  C   3.16440763899829     -0.95029992248037      1.41036677897744
  C   2.13073853806020      0.23017592136980      1.44353067934087
  C   2.58471587220467      1.60403230264641      1.14458934411473
  C   2.93629487790616      2.69803552571979      0.91194793013981
  H   2.62380496779550     -0.03075591285739     -1.27941204180594
  H   1.08398228122695     -0.70452178647587     -1.80449344513827
  H   1.16358806331932      0.96162042370487     -1.22128849626849
  H   -0.60607767844585     -0.96418310186848     -0.02309109280388
  H   1.54510648141341     -2.46142301208836      1.42172574076968
  H   2.41904407704410     -2.44569015145029     -0.12001741789428
  H   3.53475043216570     -1.28268121106057      2.37297831833613
  H   4.00195071315320     -0.73923545844156      0.75451383998344
  H   1.57957319664351      0.22921285498006      2.38307181352916
  H   3.24553016847128      3.70021324906236      0.70916356837022
  C   6.34583225499770      1.28912386164565      1.12595091860672
  C   6.30661161839905      0.63684989733852     -0.28180962872876
  O   5.03311366984095      0.70367628027098     -0.88229375791034
  C   7.53148371673657      1.07822862366027     -1.17666707251989
  C   8.25991798871758     -0.25015349357237     -0.79471460183044
  C   6.89301280397418     -0.83101172155745     -0.29054025394016
  C   6.87499789743373     -1.59705657030307      0.97037434541178
  C   6.86533938213148     -2.19535783372494      1.97758405541490
  H   7.32986743128810      1.16871431437158      1.56527217871834
  H   6.12750944341738      2.34999790454564      1.05420695227139
  H   5.61648703731646      0.82349499641753      1.78142476031681
  H   4.52966507977606      1.46429125646654     -0.53939576615415
  H   7.25768224720685      1.10959207019001     -2.22574688964232
  H   8.02181128104809      2.00425340188571     -0.90257834395690
  H   8.73383265791586     -0.79745948304703     -1.60127057975186
  H   8.97067070345196     -0.12274433116410      0.01390815238795
  H   6.40309283910169     -1.39865422590698     -1.07978064433560
  H   6.85571199414668     -2.74185471802399      2.89566014625709
