36
Coordinates from ORCA-job dimer_009486/dimer_009486
  C   1.00903575156850      1.68140107517073      1.22284666806820
  C   0.89825721050361      0.30683231287278      0.53527924564267
  C   1.91394713777284      0.09157785732640     -0.64200165115676
  N   2.74581468736093     -0.71332606088722      0.28020819426196
  C   1.66043198916541     -0.86963305962000      1.27042509536215
  C   2.06741037793598     -0.69794886776496      2.75411316552818
  C   0.90988940390187     -2.16003121410709      1.10115823521273
  N   0.34915917970519     -3.13548776590778      0.95800683182242
  H   2.04576654756074      1.93246529253217      1.41680237592049
  H   0.58668902065764      2.44814402137631      0.57998208424591
  H   0.46761896485615      1.68769778967769      2.16375170206562
  H   -0.13557687050608      0.08051095830481      0.29863663624930
  H   1.48601185579370     -0.46257292295125     -1.48032330756597
  H   2.39869049724189      0.98975584311854     -1.02272421944959
  H   3.22369281489498     -1.54253919124218     -0.05279021652273
  H   2.63346148540328      0.21767283411122      2.87624488848713
  H   1.18442858282714     -0.66023154128122      3.38505365032478
  H   2.68860095166776     -1.53377239337644      3.06647864505585
  C   5.97639424864834      0.82560247652158     -1.41048019984078
  C   6.23293275473971     -0.43318936040784     -0.56092934736395
  C   7.75005645366509     -0.74773023497384     -0.30468640996784
  N   7.59127955135958     -0.18650185817023      1.05296667628188
  C   6.11767715666631     -0.21621269585178      1.00177000720180
  C   5.39867762648599      1.04841197292552      1.52817696346381
  C   5.53311477900301     -1.43553094970316      1.65820895006438
  N   5.10592843607121     -2.36126584424223      2.15459427844242
  H   6.60059431342619      1.64691725154848     -1.07607135541537
  H   6.20972689905623      0.62076660983112     -2.45111602281864
  H   4.93592731116537      1.12672121426710     -1.34346228920431
  H   5.64967083958171     -1.26767941263798     -0.93231061226736
  H   7.97774127230164     -1.81558971957925     -0.34024077073569
  H   8.46039905438281     -0.21344345444551     -0.93515549741127
  H   8.07853945483343     -0.59040987791952      1.84371661420483
  H   5.85932943499013      1.93239942057380      1.10275924825416
  H   4.34982964650670      1.00700409398954      1.24809513318591
  H   5.47731317880450      1.10104340092166      2.60965461037359
