40
Coordinates from ORCA-job dimer_007500/dimer_007500
  C   2.25943536947122     -0.19470925493767     -1.85142020608272
  O   1.88364712129165     -0.94569583930108     -0.70342473794603
  C   0.48891558915919     -0.98463342193425     -0.43988067501096
  C   0.32526161412831     -1.87154922191705      0.83302064571441
  O   0.90436262992753     -3.13787993941691      0.61876023741726
  C   0.74602261341954     -1.09919175691952      2.14296707284311
  C   -0.76880105633569     -0.85229709725671      2.44915687746576
  C   -1.14878693033188     -1.91325867688441      1.36257613261226
  H   3.35618855116481     -0.19530579959221     -1.90558457819941
  H   1.85682199713353     -0.63414501910329     -2.77293090527828
  H   1.91255790220140      0.84411031729563     -1.78556253639967
  H   0.07895161695967      0.01588630371197     -0.26074755124165
  H   -0.06457829578445     -1.43239290431888     -1.27494348020366
  H   1.75946620591654     -3.00498324209221      0.16519133782847
  H   1.20897473909814     -1.76640551841959      2.86135709915385
  H   1.37148787663777     -0.22580900053655      2.00576473821451
  H   -1.09231461739553     -1.07179197164479      3.45958028279531
  H   -1.09278217725587      0.14905628642791      2.18996951385710
  H   -1.92296865067884     -1.64302687304177      0.65428256682900
  H   -1.37807220917358     -2.88383686366438      1.79007938228341
  C   4.95599033549910     -0.41627548258558      2.83464793247176
  O   5.51803130870168     -0.70079381056749      1.56143714090688
  C   4.76625474619330     -1.62957625317657      0.78888323162594
  C   5.48339668956117     -1.72436335948681     -0.59257619690820
  O   5.60700151885358     -0.44074707643550     -1.16226281161975
  C   6.78415776009707     -2.61406384255907     -0.52827937548782
  C   5.96849822164870     -3.79776510295616     -1.14775395596097
  C   4.83286968534943     -2.79292467495773     -1.53619414169188
  H   5.60175043604700      0.31482461535217      3.33145720855308
  H   3.94681872316412      0.00790423724484      2.75052557766585
  H   4.89758733794894     -1.31336651334505      3.46479326834932
  H   4.72971217448302     -2.61597453400492      1.26466292671827
  H   3.73539734438044     -1.28188976996357      0.63781778933078
  H   5.91514117554603      0.16838739857303     -0.46261929475105
  H   7.54756244817534     -2.24315469046784     -1.20312307082114
  H   7.21529996660325     -2.76719702448684      0.45361369045292
  H   6.43943203931338     -4.32346710128780     -1.96961276742810
  H   5.65101430391317     -4.52277519115701     -0.40718354390953
  H   3.81314986530491     -3.07946506381724     -1.31010714438660
  H   4.89350084166152     -2.48084297536833     -2.57323803776197
