40
Coordinates from ORCA-job dimer_006841/dimer_006841
  C   1.16302284925444      0.61263890718145      1.60261482640122
  C   0.92785588592314     -0.20811843915585      0.30722317469253
  C   2.28177608349982     -0.59282613346603     -0.33643294998593
  O   3.05195483763321     -1.51374239709854      0.47720977319880
  C   3.13586462754505     -2.52223556127933     -0.55826040580979
  C   2.29489401946513     -1.61007727934303     -1.54247772432246
  C   0.93087012433762     -2.19479190623334     -1.99605830921926
  O   3.01785093898266     -1.06493035295435     -2.62993216905099
  H   1.75297556631074      0.03382794667840      2.30684015868495
  H   1.69859412208582      1.53022064110125      1.38241600021117
  H   0.21879423081873      0.87004674502822      2.07135490851303
  H   0.36496374308176     -1.10453315267849      0.54143351847300
  H   0.34927430420589      0.36999592903407     -0.40764001409005
  H   2.85077884216834      0.31104676415623     -0.57545018228241
  H   4.16232851262132     -2.72545775177758     -0.88853858662687
  H   2.65349021996884     -3.46124329935742     -0.27019362333853
  H   0.38863612009568     -2.60952084659369     -1.15418265621502
  H   0.32620335891948     -1.41883348078311     -2.45564434586907
  H   1.08722261826796     -2.98733275291092     -2.72201727543222
  H   3.12814300802613     -1.74077754111377     -3.32489062007398
  C   5.44057865601100      1.51124305563928     -1.28834497660456
  C   5.91598908353402      0.21458532295472     -0.58236438317630
  C   6.38948637776480     -0.82045515809788     -1.62892660421695
  O   7.65118297804910     -0.47026919245908     -2.25654595326791
  C   8.26396758307285     -1.74850066187715     -1.97354904039919
  C   6.99445492903742     -2.19132090848494     -1.13525578865819
  C   7.23132587001290     -2.32570296779053      0.39232058689212
  O   6.26565477234722     -3.28890785275945     -1.65356398495814
  H   6.25372491797973      1.94381231876387     -1.86293001865890
  H   4.62177920842585      1.29259510434366     -1.96704461956296
  H   5.10372630983379      2.24343648308965     -0.56207654155653
  H   6.72924062452130      0.44271016141894      0.09733196657001
  H   5.10826334101481     -0.22216437409759      0.00002366259174
  H   5.59861587922334     -0.98338463507974     -2.36992362145818
  H   8.43025729033394     -2.34943993965339     -2.87451371771236
  H   9.20151371703445     -1.66015754801339     -1.41628876637439
  H   7.80449721622987     -1.48399485238441      0.76425863798428
  H   6.27982424922395     -2.35801343616406      0.91613606899709
  H   7.78301889923500     -3.23520800167787      0.61063285606623
  H   6.66762508390117     -4.12478295610446     -1.35225326035475
