44
Coordinates from ORCA-job dimer_006860/dimer_006860
  C   -0.87584802058225      0.30695883793564     -1.68981094467607
  C   -0.22467391045673     -0.58030121518426     -0.59601924171799
  C   -1.30695194986154     -1.53021455248356     -0.01738511576657
  C   0.94263040162711     -1.39224047002050     -1.21988073642997
  C   1.79047817032296     -2.11344937592766     -0.12952725488360
  O   2.26830124054567     -1.20211947760118      0.85378747765219
  C   1.23306409701018     -0.49136647205618      1.51978046120563
  C   0.36353850963033      0.32687520457672      0.51846107259582
  H   -0.14476798179178      0.98469756686105     -2.11530894867955
  H   -1.27725423009974     -0.30794413089918     -2.48745669656984
  H   -1.68476490993125      0.89463263865735     -1.27064460306266
  H   -1.71684630145242     -2.15141791209674     -0.80535674524717
  H   -0.90646545800551     -2.18003379387498      0.74939824918370
  H   -2.11640241115101     -0.95445070972824      0.41624701951620
  H   0.55694446462659     -2.12367642970469     -1.92118693185900
  H   1.58836899455528     -0.71804380943106     -1.77065935238985
  H   1.20364493557060     -2.91264227172377      0.33641467336048
  H   2.67060493964076     -2.57152855996551     -0.59232251931314
  H   0.59981312645535     -1.17386271257489      2.09754013183849
  H   1.71809603035916      0.18547410324314      2.22894790575950
  H   0.98577095041850      1.08848865887585      0.06217579817388
  H   -0.43475632250754      0.82890805029069      1.05345280349864
  C   7.62295819602330      1.13526447421063      0.82195611206575
  C   6.34979003382177      0.29761777989372      0.52941575545772
  C   5.23312261217771      0.72059231652824      1.52095218373928
  C   5.90151871427587      0.53761018677119     -0.93744161144682
  C   4.76607321506097     -0.44682423670640     -1.34914646635504
  O   5.15376835357788     -1.80290433846008     -1.16340461288705
  C   5.50366785356799     -2.10356468599131      0.18313157308514
  C   6.67880814375352     -1.21164445350717      0.68529705579775
  H   8.42296651661499      0.86309426785040      0.14327153273290
  H   7.41736147419338      2.19285995345300      0.70205221764664
  H   7.96319954453316      0.96622049370349      1.83725368771514
  H   5.00797494124540      1.77350649365661      1.40037290152009
  H   4.32100835184630      0.15625865828320      1.36530662369841
  H   5.56185371098090      0.55897614493517      2.54065164400706
  H   5.56126803451552      1.55929914989636     -1.06183054297543
  H   6.74969676015015      0.38849668083721     -1.59579811133006
  H   3.85604321903754     -0.22265385561218     -0.78174292867205
  H   4.53766790496528     -0.32598664949282     -2.41134537859335
  H   4.63683799264602     -1.98798094543309      0.84455218495282
  H   5.80258660621586     -3.15491091781165      0.20422239122078
  H   7.56536340279091     -1.44189498124291      0.10555176905707
  H   6.89242733808215     -1.44204720992953      1.72285033437414
