40
Coordinates from ORCA-job dimer_007011/dimer_007011
  C   -0.31637277397481      2.18840945847994     -0.08891092458219
  C   0.73300929867016      1.57451311532430      0.86651178624464
  O   0.61004579952762      0.13854321918335      1.02486813953508
  C   2.02860962133365     -0.09623355084475      0.85251894714723
  C   2.36265285776666     -1.25285735977278     -0.11841291502603
  C   2.22778891201276      1.40882646494258      0.38530187440969
  C   2.45854522003305      1.59743868880529     -1.13745056546112
  O   3.12724218934275      2.17832398071838      1.14366899379596
  H   -0.34150602209111      1.65685920954465     -1.03301869543545
  H   -1.30278603284775      2.13296075508076      0.36217255323628
  H   -0.07961823207980      3.23143972917593     -0.27749237264534
  H   0.70562944662650      2.08721075910611      1.83477076491667
  H   2.52066272265604     -0.26545004173942      1.81551871220726
  H   1.81677916893477     -1.14891960776503     -1.04890888609361
  H   3.42647378456658     -1.25539063723653     -0.33375045335173
  H   2.09517918557165     -2.20507354716067      0.33008876998475
  H   1.74834343942711      1.02558072419641     -1.72079103374923
  H   2.35432596277951      2.64716697256298     -1.39178186182191
  H   3.46068336394359      1.27598890490956     -1.39846659004285
  H   4.04352037040072      1.90708640137849      0.91598761948552
  C   6.17919486927625      0.05336701605806     -1.75769050515863
  C   6.59764533768436      0.70916677004544     -0.42044874239476
  O   5.50986970748493      0.86531621952913      0.52321380711186
  C   6.26080429469720      0.32367251651075      1.63847538936253
  C   5.48418468210754     -0.72354650473163      2.46821348705768
  C   7.40233429181650     -0.14300491096505      0.65451436902346
  C   7.47097189726366     -1.66674903628625      0.37824472280695
  O   8.65520618559099      0.38185214594652      1.03756676230380
  H   5.59215601524667     -0.84193585814917     -1.58626768686924
  H   5.58569803083240      0.74674120767331     -2.34679505746731
  H   7.06181840610632     -0.21209414330013     -2.33250342223123
  H   7.09949540967806      1.66602268457234     -0.60657509619540
  H   6.63400076840361      1.12260499277459      2.29108473362875
  H   5.04571483631788     -1.48356388604717      1.83144352613140
  H   6.15512581192933     -1.20008470741545      3.17763068033414
  H   4.68748411552755     -0.23480379857031      3.02296162340902
  H   6.49177005475021     -2.06549220023353      0.14266779968176
  H   8.13147458589049     -1.87078014850662     -0.45910541461364
  H   7.85234513138000     -2.18046474494451      1.25584169315731
  H   9.35625828541484      0.04357274714997      0.45003346816789
