40
Coordinates from ORCA-job dimer_009678/dimer_009678
  C   0.69373703913058      0.82127886544142      1.95340156910238
  C   0.70769364224545     -0.56305208205557      1.25035792839007
  C   -0.34375690125993     -0.64596533285505      0.12668002641105
  O   -1.68921198943789     -0.60309558264838      0.52484819365129
  C   0.03276671250314     -0.02869537927941     -1.23435232823913
  C   -0.06168609734648     -1.54810853037867     -1.08717325619024
  O   1.12519958550464     -2.27996328744704     -1.15228008899635
  C   1.04966269516971     -3.55301048882934     -0.51723047692947
  H   1.47775963464663      0.87011850796052      2.70212556268694
  H   0.86632809873583      1.61238607252902      1.23115608297880
  H   -0.25399657521375      1.00358003127368      2.44849730410474
  H   1.68853665445633     -0.73238959224549      0.81400374601793
  H   0.51697056010387     -1.34837743174065      1.97568675810974
  H   -1.89264753715636      0.28004539690003      0.88640569920458
  H   -0.73295986357651      0.46539673625248     -1.81381822014098
  H   1.02032964515875      0.39941325240840     -1.31806800144264
  H   -0.93843440317515     -2.02359728129831     -1.52869000363833
  H   2.02892553668842     -4.03183525766853     -0.61978326958832
  H   0.80996125735574     -3.46242246589386      0.54934820338975
  H   0.29280237767500     -4.19441281303676     -0.98641297210157
  C   6.48517063465693      0.53129480313248     -1.84427455471895
  C   6.18610519433477     -0.25911289581570     -0.54134865521947
  C   4.73488469401464     -0.77757895195299     -0.50560041660468
  O   3.73863260338292      0.20154927582256     -0.36025737510727
  C   4.40710701772647     -2.03598313106912     -1.32967459454795
  C   4.45235982428344     -2.11860691891355      0.19571897221622
  O   5.50731499544432     -2.82876936180193      0.77331649585884
  C   5.78115030029817     -2.45049706473800      2.11880596707347
  H   7.52166730456593      0.85220377438834     -1.86526376141686
  H   6.30173484868590     -0.08934401818827     -2.71530121885278
  H   5.86058927687482      1.41530733527031     -1.91469501652740
  H   6.85691717243498     -1.10928456890498     -0.46053854576242
  H   6.35441413255003      0.37801391420536      0.32206204063212
  H   3.64553755148550      0.69147197597622     -1.19879763993641
  H   3.43088684109486     -2.10349815132193     -1.79271476223858
  H   5.21629868853809     -2.49511343359980     -1.87801062081644
  H   3.49189518433130     -2.19306283219946      0.70501084904721
  H   6.62450479488757     -3.05506858654392      2.46688889636566
  H   6.04995953999111     -1.38982939046881      2.19838731463602
  H   4.92128788621043     -2.63720791466549      2.77474670914130
