40
Coordinates from ORCA-job dimer_010856/dimer_010856
  C   4.06807925417579      1.70853922562299      1.51455193195410
  C   2.69121435103738      1.04665842605380      1.23082554155658
  C   2.11804647452065      1.49677641119231     -0.14927747064475
  O   2.74496718131802      0.79991835261934     -1.21684513783654
  C   2.44006735683125     -0.58760436734071     -1.22034251435063
  C   3.31840742481086     -1.26610090221998     -2.31075423336929
  C   2.68249136071880     -1.20896723107536      0.16606496774593
  C   2.80549114723200     -0.47658825572475      1.24650756750418
  H   4.76259717468177      1.48570769480257      0.71250415205246
  H   3.96065947046598      2.78532793384593      1.59092347725621
  H   4.48798851062554      1.33664133385242      2.44291259885933
  H   1.99426331484381      1.35002388899418      2.00773746635008
  H   1.03358859841101      1.33687484876878     -0.16572927571779
  H   2.30276594876621      2.56252619399575     -0.30506329489936
  H   1.38417138528569     -0.73622073625053     -1.48882972891628
  H   4.36897985934966     -1.17466756741668     -2.06091222405932
  H   3.06629059206425     -2.31866319031714     -2.39075227349132
  H   3.14594651694172     -0.78761145685529     -3.26992598924603
  H   2.75385385699990     -2.28646911322405      0.20107670710817
  H   3.00198711315654     -0.93233213822845      2.20738516215680
  C   6.27704880757545      1.27452441407938     -1.75699625210788
  C   6.99802460257173     -0.04328871986607     -1.35659898850378
  C   8.53248391195755      0.18939075669297     -1.21853849012107
  O   8.80927523859971      0.98396656869954     -0.07495695138357
  C   8.49161319999806      0.34942171985755      1.15564946122250
  C   8.45277207392331      1.45911344169925      2.24835751333174
  C   7.14818134042849     -0.39590639758401      1.09626568650878
  C   6.47864804109377     -0.56144684614416     -0.01749463621337
  H   6.53918824080074      2.05942621729027     -1.05557367093650
  H   6.58369133040239      1.58567685186743     -2.74981459044112
  H   5.19731968306451      1.14726416563411     -1.74993089494604
  H   6.82290144650637     -0.79258477373331     -2.12300615841157
  H   9.04974022614349     -0.77568402540101     -1.16554346604962
  H   8.91567843919709      0.73118664204248     -2.08678209702620
  H   9.27842120972479     -0.37235546587468      1.41783341688004
  H   7.65899482342530      2.16558613097702      2.02803945863369
  H   8.27389660402733      1.02067383693080      3.22478524274381
  H   9.39937188233502      1.99045623546794      2.26628876203215
  H   6.77543283775694     -0.76508436632889      2.04041824345488
  H   5.51785060122917     -1.05678073440253     -0.01830465167842
