38
Coordinates from ORCA-job dimer_007782/dimer_007782
  C   1.57709019514015      1.52765914643798     -0.58659840108912
  C   1.37893281813241      0.05046169716270     -0.14773248114852
  C   1.49151558484808     -0.92933866836341     -1.35194156485610
  C   1.41492455868628     -2.38427436329085     -0.83435592368684
  C   2.56641438725122     -2.61664879292039      0.17420421226422
  C   2.64427457299364     -1.50407183144023      1.24091830874162
  N   3.06068539284035     -1.75709617218470      2.39908851497717
  O   2.35444713991784     -0.21386188237276      0.85729187786949
  H   2.55961472405088      1.65481319544057     -1.02878116354126
  H   0.82351055192752      1.80421082441206     -1.31739292625863
  H   1.49441061472836      2.18688540463068      0.27216024097290
  H   0.37899881021193     -0.06217544630993      0.28892671871553
  H   0.68620836008509     -0.72078867619767     -2.04842149873542
  H   2.42992971753585     -0.76515454668159     -1.87109039953103
  H   0.45642369377647     -2.55240965009681     -0.35370475830254
  H   1.49689225785497     -3.08976266798727     -1.65498207088222
  H   2.46890857089105     -3.56942782118305      0.68681274815407
  H   3.51436641133822     -2.63384711627553     -0.35948252036832
  H   3.11277824007190     -0.92164836487362      2.99518274970248
  C   5.36919117892765      1.38056924488622      0.64727448069959
  C   5.60786362713220     -0.03720304638402      0.06113558845621
  C   6.82939236059358     -0.06765933497481     -0.90530705864710
  C   7.10526941047039     -1.52251448711096     -1.35505715970566
  C   7.32234497717959     -2.40569454137385     -0.09905779057132
  C   6.16876337000903     -2.22775719944170      0.90871103690229
  N   5.66594854008975     -3.20339115325122      1.51266598760141
  O   5.78746379729048     -0.92053513417382      1.16644536374178
  H   6.22784233990729      1.68922971606540      1.23437268575553
  H   5.21552619162750      2.09549161422452     -0.15438912279837
  H   4.48885501291989      1.37036647351631      1.28332689207378
  H   4.71306959832933     -0.33871314125457     -0.49426939786077
  H   6.62244494821427      0.56978090637134     -1.75818446161767
  H   7.69886874936532      0.33220448859506     -0.39486787902997
  H   6.26272258609457     -1.89631677706614     -1.92762118948618
  H   7.97994718329179     -1.56540521881654     -1.99583976504633
  H   7.39392880913132     -3.45811185109355     -0.35490307704749
  H   8.25092890935597     -2.11556590934811      0.38761038748991
  H   4.90443680778707     -2.93610291727554      2.15714081609285
