36
Coordinates from ORCA-job dimer_007979/dimer_007979
  C   1.14338964474991     -0.94345941313003      1.33519658534619
  C   2.68644700862606     -1.06507520049075      1.14048187782019
  C   3.06302159824410     -2.08860680727450      0.02460931427205
  C   3.40768795921037     -1.17836007375791     -1.18269031016367
  O   3.60859677133979     -1.51094579299406     -2.31835236247785
  C   3.41933706286449      0.29527226183598     -0.64245844861963
  C   2.30531375886683      1.15268602763162     -1.32205590730373
  O   3.26574774808826      0.18726829660252      0.76068729791158
  H   0.64349136171560     -0.76451451082700      0.39051222379629
  H   0.75199299583343     -1.86190668167474      1.76169355038804
  H   0.91966814771731     -0.12225777769241      2.00920909030674
  H   3.13811905958689     -1.34743027230697      2.09548196250658
  H   3.94639866058086     -2.66657175128695      0.28747903253877
  H   2.25511405122224     -2.77281056549387     -0.21506336024078
  H   4.39160263053332      0.74985012772692     -0.85675748697544
  H   1.32562878336650      0.71041595485337     -1.18161668719496
  H   2.29952346735314      2.15105611616418     -0.89471973933985
  H   2.50469354377605      1.22449254054777     -2.38798926738541
  C   7.38534372220127     -1.35078906680855      1.84768293180457
  C   6.52904336299973     -0.51410304717320      0.84896396117057
  C   7.36232977174071      0.61781324780275      0.17536710189536
  C   7.81663281643375     -0.05069143459184     -1.14855160212996
  O   8.70857011629003      0.29115981163458     -1.87488468970821
  C   6.88742957477098     -1.29875388262067     -1.35270760546375
  C   7.71412302988049     -2.60801807062199     -1.53132844935498
  O   6.03502737921045     -1.32644994839086     -0.22073402589321
  H   8.30477206595548     -1.68986542546908      1.38381359082539
  H   7.63984420671423     -0.74633965785050      2.71296666747729
  H   6.82300214595003     -2.21735482837710      2.18112068701849
  H   5.65646611043375     -0.10732713186776      1.37069819266188
  H   6.74806360747861      1.48735599647670     -0.04910391591692
  H   8.20988841752958      0.94213074854420      0.77060510565297
  H   6.27257655803391     -1.14644516317663     -2.25015521995298
  H   8.33928362508255     -2.79927697515796     -0.66615335949843
  H   7.04032599485469     -3.44885835662034     -1.66848902029503
  H   8.34900411676411     -2.51654705416490     -2.40892572647815
