44
Coordinates from ORCA-job dimer_007582/dimer_007582
  C   0.56838601514543      1.89938140836413     -0.20713182213983
  C   0.92407602308488      0.48265377567082      0.33900318767593
  O   1.35094451409567      0.53939836387696      1.69737383997135
  C   -0.23163821748909     -0.54716742373510      0.13624103685200
  C   -1.55949354115209     -0.09200212675021      0.77499294664651
  C   -0.32387977337369     -1.00659590630284     -1.35942159162109
  C   0.40033345930935     -2.34200582478504     -0.98553352756679
  C   0.24606028211558     -1.98632924508696      0.53010165781267
  H   1.44486514235623      2.53839422856923     -0.17526067204821
  H   0.22192768541293      1.83600616319412     -1.23284006220820
  H   -0.21100215447181      2.36016455046973      0.38891011123294
  H   1.78333896669019      0.10841633893266     -0.21864510914728
  H   0.63456956181464      0.90469760325305      2.24718681092273
  H   -1.93044881537760      0.81214140362494      0.30576229291128
  H   -2.31046667952885     -0.86441520831820      0.65384787527033
  H   -1.44368449021810      0.09173078011801      1.83754175701830
  H   -1.34458856466661     -1.15572080903595     -1.68928820182723
  H   0.18317231223461     -0.37568248301318     -2.07830966915924
  H   -0.09357719900064     -3.25021346341134     -1.30917105461141
  H   1.43264899602369     -2.37517973743714     -1.31398354163616
  H   1.14871922096422     -2.02332330916735      1.12837566927618
  H   -0.52437543249391     -2.56479636001390      1.02454832881847
  C   7.56268381036094      0.76995691182267      0.09488111191275
  C   6.67946778196831     -0.46493766639687     -0.26472333034403
  O   7.12014956419669     -1.63539791327307      0.41830203584069
  C   5.15728668383628     -0.19778156241307     -0.03192194353883
  C   4.83853352512079      0.23904910400625      1.41252358773356
  C   4.56714140490276      0.71045257772153     -1.16459562785934
  C   3.98530406228390     -0.56158575127439     -1.86458656164414
  C   4.31104539868298     -1.39569001362819     -0.58159509247087
  H   8.58755860689873      0.59388963504764     -0.21497451375248
  H   7.19595205875868      1.65993463488188     -0.40433120844122
  H   7.55570829005881      0.95073197274956      1.16358394023990
  H   6.81066140704360     -0.68257343287253     -1.32702099112490
  H   7.04082818897526     -1.49406286085530      1.37909366273389
  H   5.30823171312269      1.18760317801456      1.64454281961711
  H   3.76566614723653      0.35382037697885      1.54234529146240
  H   5.17972995189557     -0.49893342690114      2.12963507934724
  H   3.79795239060939      1.37913004683305     -0.79867201303302
  H   5.28406507337778      1.28557150588399     -1.73635740173247
  H   2.94299644308736     -0.51143821270358     -2.15380234626819
  H   4.56508509296193     -0.87083970163630     -2.72627876313641
  H   4.85801487235367     -2.31905330371089     -0.73091066555960
  H   3.43743495879176     -1.59872100829099      0.02507293057470
