38
Coordinates from ORCA-job dimer_007982/dimer_007982
  C   1.56648006621182      1.98492934924900      0.02694795808287
  C   1.30106514426477      0.46017301674070      0.15289296533895
  C   1.65005057155635     -0.32541835753803     -1.15259495384920
  C   2.17232788361663     -1.69813200780307     -0.65895550585693
  C   3.24215092655638     -2.35835805047463     -1.55617187205247
  C   2.71835269284058     -1.37928683932404      0.76749111433979
  O   3.47468273267726     -2.05606249658202      1.42159160770586
  N   2.16395266630728     -0.16866539196253      1.14362412444353
  H   2.60970804713252      2.16539318837678     -0.21014509340845
  H   0.95144556355847      2.40613976592819     -0.76210130204786
  H   1.32797718740697      2.49423578197965      0.95551831801149
  H   0.24833035439938      0.30623065546536      0.40305307665726
  H   0.79192052675444     -0.41611948629886     -1.80811102220263
  H   2.43150405221379      0.19571236451875     -1.69292492732409
  H   1.33934376495861     -2.38586837374730     -0.52934200106910
  H   4.06298057245298     -1.67444849913503     -1.73952194463897
  H   3.63724403468468     -3.24502663716175     -1.06813011847217
  H   2.81466919813976     -2.64599544567722     -2.51150518003584
  H   2.30556390953531      0.21775661465768      2.06237693694857
  C   5.50220458683047      0.58477163747005      0.02633383052992
  C   6.37644174305359     -0.68837154975761      0.18512866905497
  C   7.14737940886304     -1.06124157252647     -1.12174693038435
  C   8.48038847316914     -1.67844773445979     -0.62946599693671
  C   9.69529304431970     -1.44048211325693     -1.55332789434715
  C   8.67991378579867     -1.02616017655942      0.77464999983135
  O   9.70056101401088     -0.99503869179000      1.41891365964446
  N   7.45694458058682     -0.49204766558001      1.14255913421063
  H   6.12037287853695      1.43304427254363     -0.24786102640671
  H   4.75803716886143      0.43277188278891     -0.74712322584127
  H   4.98748153681451      0.81217127268534      0.95411583754084
  H   5.73220284736089     -1.51905044135808      0.48902606022820
  H   6.57906785589775     -1.74199612389909     -1.74394402667709
  H   7.34641938307539     -0.16429583243243     -1.69631469667262
  H   8.35510057443433     -2.74652846267265     -0.46599442186189
  H   9.82741304112844     -0.38079792306210     -1.74392115221807
  H   10.59812342753845     -1.81753731428628     -1.08116016148312
  H   9.55898194389524     -1.94751568608715     -2.50322999731947
  H   7.30035924655607     -0.11296913797155      2.06207315753750
