36
Coordinates from ORCA-job dimer_004542/dimer_004542
  C   4.01531582869694     -1.03314226232250     -2.41901495823410
  N   3.51916534358898     -0.83199461195122     -1.06029963936694
  C   2.78417705042692     -1.71945839500298     -0.30346333308665
  C   2.62700144952450     -1.14890835228003      0.91730883848937
  C   1.90168905864395     -1.69319710365740      2.13260651729270
  N   3.25965442005256      0.08787966838363      0.92776133525077
  C   3.77477384816565      0.25152456145306     -0.25584221098021
  C   4.51954099797683      1.47351860775616     -0.75542776617128
  H   5.10494198487179     -1.16397753874008     -2.41439490736183
  H   3.55209080253085     -1.92548575842381     -2.84003679643204
  H   3.76149836153172     -0.17629565567487     -3.04704546475290
  H   2.45230271286996     -2.66563613480354     -0.69700668277011
  H   2.58184505034398     -1.79595492265667      2.97486468599920
  H   1.10139751977028     -1.02134079784510      2.43448762202875
  H   1.47234967599573     -2.66585730456086      1.91563918228288
  H   5.44029284071727      1.19655201471077     -1.26122386765604
  H   3.90159392543366      2.03991103748979     -1.44997375057454
  H   4.76053346013649      2.11199190904346      0.08881044416098
  C   6.50044903906029      0.07452184176625      2.25126685304205
  N   6.99661224289595     -0.12679540733117      0.89259141753531
  C   7.73161375044999      0.76058041330791      0.13566250591380
  C   7.88869289092478      0.18992903538231     -1.08508033265681
  C   8.61422763316896      0.73416163588422     -2.30026651244465
  N   7.25585824301310     -1.04675522830125     -1.09547100163710
  C   6.74077614689938     -1.21028703657593      0.08816484215664
  C   5.99579418824470     -2.43212212323682      0.58780647892775
  H   6.75458385840119     -0.78204875074162      2.87955150266216
  H   6.96339454627004      0.96713816236634      2.67203469340393
  H   5.41079162163043      0.20500504109804      2.24673618928133
  H   8.06360731181314      1.70669580770821      0.52922505525745
  H   9.41664531101039      0.06393166747450     -2.60016588263031
  H   7.93489040309505      0.83392482771278     -3.14352087223009
  H   9.04083650973311      1.70822602835489     -2.08415230741552
  H   6.61380253575698     -2.99880284447814      1.28208888568409
  H   5.07527170879867     -2.15492195984373      1.09391684394215
  H   5.75432634855533     -3.07040592546459     -0.25643912391016
