38
Coordinates from ORCA-job dimer_002795/dimer_002795
  C   -0.68112216839983     -0.05408978233465      1.18554989010607
  C   0.65322785046410     -0.81390411485131      1.03814638002314
  C   1.21242960791199     -1.04374670616312     -0.40609860904634
  C   2.63890506993615     -0.65798881743856      0.10947266036026
  C   1.99488051256943     -0.09252362669787      1.41720383464684
  C   1.91190913577756      1.45349509633996      1.42632821718841
  O   3.23931773524485      1.95773149394034      1.58351027175349
  H   -0.67035405337776      0.87371697248405      0.62644476946982
  H   -1.49814981622556     -0.66161273242671      0.80910431564246
  H   -0.88288619035780      0.17512327278062      2.22701447554749
  H   0.58765039384941     -1.75684759961369      1.56900975040876
  H   1.09585293029084     -2.04083899238354     -0.81293956442856
  H   0.81882848255708     -0.32883534280474     -1.11846267649077
  H   3.26808529331089     -1.52098367927522      0.29945252899906
  H   3.19432515183466      0.05578336568796     -0.48616641892354
  H   2.44988457064694     -0.42480935369009      2.34203494933508
  H   1.46473035737566      1.80112820494093      0.48828294609035
  H   1.25901648431300      1.78307982434043      2.24370813822716
  H   3.21760386786459      2.93253743942555      1.60190060027530
  C   6.69854457129827      2.05407833907395      0.19488451082858
  C   7.07520253023808      0.68101103451540     -0.39826601923961
  C   8.47408726278132      0.07787027541186     -0.03473319639655
  C   7.79186683769645     -1.31389155278433      0.18547866017746
  C   6.39554666547164     -0.60918862047563      0.18111089154978
  C   5.80268864228780     -0.43221122192111      1.59957729581945
  O   5.36482278231953     -1.71703713398238      2.04968605949946
  H   6.89166314114746      2.08639059515310      1.26026313819789
  H   7.28046522601502      2.83913419412132     -0.27707995564957
  H   5.64498975256644      2.26276540189093      0.03579694634642
  H   6.94612803899581      0.70831303908605     -1.47408104132951
  H   9.23612481907664      0.13070435113249     -0.80251873087091
  H   8.87468952474471      0.49329680786833      0.88190500588530
  H   7.92511763113467     -1.98233491581087     -0.65679843108294
  H   8.04761326242370     -1.84247083741334      1.09564623562347
  H   5.64699947895613     -1.06171010128118     -0.45740861311701
  H   6.56986167119347     -0.02277223651593      2.26566590592260
  H   4.97523384419845      0.28928976324804      1.56444227799590
  H   4.94044628186661     -1.62017014257701      2.92223665065503
