40
Coordinates from ORCA-job dimer_006981/dimer_006981
  C   1.78215365504699     -0.07487310771932      1.97459273462478
  C   1.25388021909914      0.20971244960021      0.53870815048896
  C   1.27782179703991      1.72935027128041      0.23857463236022
  O   2.03898786477629     -0.46079654109748     -0.44149062064976
  C   1.63107691918942     -1.82358144009740     -0.54180299094015
  C   0.15592031327361     -1.90235295127921     -0.01105243408077
  C   -0.17534503980492     -0.41321254968465      0.34291724684570
  O   -0.95483637581752     -0.23398670671416      1.51282108212786
  H   1.75268808457012     -1.13466582342844      2.19755073215053
  H   2.80695941986862      0.27034497930133      2.05620252858881
  H   1.17092227157368      0.44652535863923      2.70335610238389
  H   2.28064598648240      2.12121363837465      0.37331973034226
  H   0.96559872109488      1.91520249081543     -0.78351925842602
  H   0.60405571761522      2.24541506628867      0.91533616427556
  H   1.70657967745597     -2.12931374636384     -1.58963778244724
  H   2.28925663038637     -2.47585696152923      0.04316317485920
  H   -0.52004451621679     -2.30771677286445     -0.75436346212261
  H   0.09129570989795     -2.51652651616824      0.88048972930263
  H   -0.64052886796001      0.06898772201480     -0.52300162164678
  H   -1.85594509942912     -0.57389552624591      1.36137104009079
  C   5.18041983255937      0.89346179217702     -0.04605917448543
  C   6.11521143598443     -0.31462360288389      0.24827371256597
  C   5.44385644192517     -1.29036311052760      1.24571429941206
  O   6.42979992129652     -1.02938353284383     -0.94322535484249
  C   7.46797943896701     -0.35280888800963     -1.64832448738468
  C   8.25359454719003      0.50810639873147     -0.59621645814914
  C   7.52106356939229      0.17904618405266      0.74820874335279
  O   7.37399260764907      1.27514666786462      1.63493485962895
  H   5.63949500481006      1.57859668015376     -0.74793131089383
  H   4.24446880370353      0.52912954921130     -0.46226358630142
  H   4.97624226111349      1.43096888300609      0.87304326405724
  H   4.48223867299301     -1.60785583280816      0.85667906474887
  H   6.06850999761524     -2.16375442577198      1.39866483019165
  H   5.29043413701914     -0.79198115764040      2.19748495746803
  H   8.10820642175842     -1.10255268498853     -2.12219481475945
  H   7.05638452501712      0.28328225551258     -2.44007055642042
  H   9.30514496932440      0.24955757885243     -0.56566825877311
  H   8.16813285788994      1.56732857193909     -0.81255998083137
  H   8.02350753708426     -0.66203109602210      1.23680337715943
  H   8.24821006756236      1.53936279787286      1.97602454212819
