40
Coordinates from ORCA-job dimer_010864/dimer_010864
  C   3.38551392348099      1.74013033051221     -1.51293989097365
  C   2.85771976621013      0.28879173831723     -1.61185008562483
  C   3.58064878133977     -0.62167785835913     -0.57077142295753
  O   3.20351264414486     -0.25235375062293      0.75260973904124
  C   1.80108853682159     -0.30126533971729      0.97018535342293
  C   1.52228529037074      0.18646345730639      2.41996333261618
  O   1.10085210458172      0.55403018266176      0.07597485276255
  C   1.33021215972783      0.23552764837542     -1.29317861433246
  H   3.17860019306616      2.13977311554181     -0.52574166468877
  H   4.45887285806721      1.76181274607905     -1.67485142582728
  H   2.90481654608619      2.37445346154151     -2.24956399566632
  H   3.03102719775840     -0.10218276681352     -2.60934300235704
  H   3.33964937613740     -1.67426262360391     -0.76152036967765
  H   4.66509892539185     -0.49191792001997     -0.64837121198431
  H   1.44364469410652     -1.34193390790755      0.83789137921452
  H   1.87786400238808      1.20677851366366      2.52879485337882
  H   0.45538585764859      0.15638422011510      2.62079181760788
  H   2.04330340181046     -0.45075999452035      3.12868324518766
  H   0.78540002957648      0.96931689286752     -1.89249767437685
  H   0.93280175287718     -0.75866844708789     -1.53200998068097
  C   7.29410279477058     -2.39640133511988     -0.49670510151649
  C   8.34844924862544     -1.28145155077205     -0.70068042274223
  C   7.74792291617077     -0.09435768538771     -1.51862685263906
  O   6.73993980796253      0.56843170540135     -0.76276531367185
  C   7.20794661667308      1.04829035914925      0.49301704897433
  C   6.01400040909501      1.69842575536948      1.24740303853809
  O   7.71876330437980     -0.00892969449383      1.29374964006785
  C   8.79847349330689     -0.70277717882872      0.67814940328598
  H   6.45213510019061     -2.01083841166270      0.06963271389696
  H   6.93197396296836     -2.76264650051012     -1.45116985344773
  H   7.72220012245115     -3.22867190045983      0.05167481747298
  H   9.21210082739163     -1.67698406733419     -1.22611253167942
  H   8.54561189413555      0.60450122905612     -1.79948103475044
  H   7.28042989942659     -0.45782868957137     -2.43727864395266
  H   8.00780628581849      1.79548247849107      0.31973279526813
  H   5.21554995344886      0.96944129023225      1.37472945746501
  H   6.34676763611201      2.04209962360218      2.22234480020263
  H   5.63567021591360      2.54154222427999      0.67761093677273
  H   9.09594461673396     -1.50832478863118      1.35441400005156
  H   9.66140294283181     -0.03932386213927      0.54114077131954
