36
Coordinates from ORCA-job dimer_009547/dimer_009547
  C   1.46248134829688      1.53585865755608      1.40267143628840
  C   1.11353247366969      0.04813237021709      1.15011472385878
  O   1.13756967592860     -0.30955149999216     -0.25629994735930
  C   2.39132262980553     -1.02835976109608     -0.15030004813884
  C   2.29776617545170     -0.95627068770359      1.42934084174249
  O   3.36637625251307     -0.41024991914657      2.15032939250936
  C   1.78559156681731     -2.30481373847172      2.03471502268820
  O   2.78448582111735     -3.30867490682563      1.83197559852511
  H   2.38889574209697      1.79868442507890      0.90180202419411
  H   0.66690604170045      2.17027012589874      1.02241244446639
  H   1.58070021939788      1.71437495089601      2.46779375497916
  H   0.16292682399717     -0.21070305654982      1.62487625501658
  H   2.35652284352834     -2.02735131357199     -0.59417702511970
  H   3.23538963482553     -0.46689167600787     -0.56909765856001
  H   4.05542375388256     -1.09781484880461      2.31472847800440
  H   1.57428354217977     -2.15525688887364      3.10212639828514
  H   0.84654089283744     -2.57410133105877      1.53530413132660
  H   2.46085912629679     -4.16341362669483      2.17271124842041
  C   7.70643824459517      1.26614555564085     -0.94713284367648
  C   7.74325422228143     -0.07614829934684     -0.17658859378162
  O   8.57047499636969     -0.02502134607422      1.01476101892587
  C   7.44013867605686     -0.05831151740556      1.92055936419494
  C   6.46797325050103     -0.36176377540628      0.70969428848539
  O   5.41220044568398      0.52351297181578      0.46539984753208
  C   6.04141818338192     -1.87085436778367      0.66906050361344
  O   5.32793202342026     -2.18376841879463      1.86590264094387
  H   7.42197462116438      2.07445497139810     -0.28140072826872
  H   8.68647727086189      1.47840318341583     -1.36467553020385
  H   6.98045039494652      1.21222432966795     -1.75330177549770
  H   8.03487243243339     -0.89359052193342     -0.84192596459874
  H   7.51935874761407     -0.83718529305888      2.68509786996608
  H   7.25270586009830      0.90974719473065      2.39880799718398
  H   4.68832431511400      0.40610070503688      1.11880893373897
  H   5.43205316253343     -2.03922440241401     -0.22787215157597
  H   6.94361882713933     -2.48918166812448      0.58613088979273
  H   4.77033342946091     -2.97958862821355      1.74843079309834
