38
Coordinates from ORCA-job dimer_004828/dimer_004828
  C   4.09655267884491      1.93397633658450      1.60949047553591
  C   2.96504597487855      0.99390499344409      1.09762146996004
  C   3.14443011105972     -0.43446251034946      1.57572009606318
  C   3.35709663167647     -1.58150916193611      0.88486621842314
  C   3.48206210092222     -2.64536245019343      1.84088224276817
  C   3.33279907375819     -2.10500799682715      3.07680655105206
  C   3.34799687787975     -2.75567169183973      4.44635498368815
  N   3.12964666289673     -0.75335323421581      2.91348210406205
  H   5.06654506075031      1.59063526052236      1.26214844578159
  H   3.93641555737584      2.94518836274320      1.24936882620734
  H   4.11976774214024      1.95823925683941      2.69303874865426
  H   1.99913283175262      1.37374222132062      1.42474124814571
  H   2.95413064654552      0.98990303541800      0.01227409133940
  H   3.42149418460066     -1.67205843781269     -0.18257675904900
  H   3.65060582893961     -3.68337644372032      1.62369890724660
  H   4.11535546143968     -2.32383284101373      5.08534846784739
  H   2.38835295185626     -2.63841052412739      4.94652273131666
  H   3.54798545075326     -3.81749830730087      4.34174602017130
  H   2.97518835278632     -0.09384708935631      3.66241427260300
  C   6.03785565829034     -0.17697692859488     -1.31580829466975
  C   6.68523195717964     -1.12618665719979     -0.26756901215120
  C   6.95535525589393     -0.41272287495660      1.04633816172391
  C   7.76799801009873      0.64018693776636      1.32221764244669
  C   7.64515273665829      0.92173227484643      2.72129440759256
  C   6.76152281374935      0.03145104577658      3.24052599223528
  C   6.26066512943289     -0.13623392246838      4.66116343161231
  N   6.34287462407267     -0.78375489465887      2.21638773932648
  H   6.68995863896880      0.66790819489896     -1.51018592842601
  H   5.86253138073078     -0.70095518471458     -2.25005621514356
  H   5.09093651634422      0.20153713500030     -0.94779547019150
  H   6.03131367146023     -1.97428199220586     -0.08968292463751
  H   7.61859978872107     -1.51677356743783     -0.66626660020365
  H   8.38998455271144      1.16003008074888      0.61939733644690
  H   8.15775091449570      1.69173874020179      3.26576207175241
  H   5.19541202374174      0.06511257450659      4.73434598263498
  H   6.43854490582446     -1.14577804418671      5.02514623943620
  H   6.78254370021557      0.55709448148116      5.31308085815268
  H   5.65232209455263     -1.51995765898266      2.29519072024565
