48
Coordinates from ORCA-job dimer_006172/dimer_006172
  C   1.27247729878537      1.17566665740189     -0.23668047616860
  C   1.03083632612382     -0.01179474346834      0.73334719670708
  C   1.05686311706211      0.46734584644029      2.20911604839386
  C   -0.30660963282107     -0.68641537100026      0.41807000868003
  C   -0.41527442810706     -1.68534655609818     -0.72650832006665
  C   -0.55841473057194     -2.15904717294997      0.71762836086752
  C   0.55423609950630     -3.02428561853777      1.32189597881867
  C   -1.96245362188564     -2.54350893071880      1.20437576259447
  H   2.23243084735992      1.64143567883409     -0.04187577799096
  H   1.25541103952091      0.83258089135804     -1.26533048081808
  H   0.49934082444387      1.92606437002459     -0.11563037704272
  H   1.82635430820101     -0.73113040369886      0.59037338545621
  H   0.28196023986479      1.20663382184475      2.37814547064925
  H   0.88479419143882     -0.36466041769321      2.88250251350709
  H   2.01418841355264      0.91635114539879      2.45034955577057
  H   -1.15444664587446     -0.03540355325414      0.55755938117778
  H   -1.29342949481477     -1.66506463109358     -1.35152794043042
  H   0.48999533524749     -1.94137996946217     -1.25230121576693
  H   0.35248262418052     -4.07283429865438      1.12647396985036
  H   1.52256691061210     -2.78420133693390      0.90131957743540
  H   0.60490925812143     -2.88579189805966      2.39725132525304
  H   -2.18370593203384     -3.57577190082316      0.95124165099702
  H   -2.03181113894684     -2.43621973549630      2.28253323001411
  H   -2.71552243988650     -1.91073860660668      0.74849655208286
  C   5.53359339025882     -0.03256609285821      3.10407332564712
  C   5.18640481054030     -1.26749466671850      2.22909934824849
  C   4.02391637053907     -2.07925338566444      2.86037230361797
  C   4.81715027231238     -0.81021829353412      0.81444554890341
  C   5.89868288136408     -0.60380829573001     -0.23775322581264
  C   4.89199981879866     -1.74133143246090     -0.38922629413100
  C   5.38117812443134     -3.18472015666906     -0.22153509361751
  C   3.80919583684031     -1.58985004846610     -1.46663070795446
  H   5.82815994954391     -0.33973795117510      4.10164552346816
  H   6.34766462012618      0.52979374485825      2.65974254425618
  H   4.67340290629442      0.62187071121976      3.18914512909256
  H   6.06305748302418     -1.90145707425030      2.17698644062621
  H   3.12953652674140     -1.47023820107331      2.91976616600739
  H   3.80009424978014     -2.95482956932431      2.26243715120839
  H   4.28360042684727     -2.40297066216418      3.86230538754743
  H   4.00633007822432     -0.10104560700273      0.79924854636087
  H   5.82256353457345      0.24214390073458     -0.90181514387036
  H   6.91082431945479     -0.86070935398485      0.02960867078000
  H   5.77064003704337     -3.55407940275288     -1.16523656571679
  H   6.16770822171851     -3.25798785746882      0.51891970852889
  H   4.56352846855037     -3.83142740166497      0.08048212457165
  H   4.19255493881225     -1.89649060299284     -2.43499154664263
  H   2.95106344549144     -2.21142310270366     -1.23220429382910
  H   3.47694750760964     -0.56061379390613     -1.54005745326138
