36
Coordinates from ORCA-job dimer_004829/dimer_004829
  C   0.45276031343083     -0.19168315971838     -0.16776101613561
  C   1.84492114514623      0.44192943088960      0.11564693537440
  C   2.72187990958332      0.44575896228280     -1.12211719617673
  C   3.35239405621686      1.42647035646415     -1.79422687563974
  C   4.03581692835531      0.78761442045018     -2.90302608774875
  C   3.76091898028307     -0.52686009779817     -2.81001081261925
  C   4.17436649375039     -1.72520124909199     -3.64103165997025
  O   2.96056074821670     -0.74727519883267     -1.73076101202833
  H   -0.07171361339080      0.36992648313020     -0.93408943345890
  H   0.57115933923562     -1.21434249616295     -0.51248238697537
  H   -0.15127482286998     -0.19569541844969      0.73411691290479
  H   1.73226099901263      1.46807694749112      0.45404081063482
  H   2.34072739325644     -0.11232120346872      0.91116787504066
  H   3.35305687563782      2.47500131934183     -1.55682385655743
  H   4.64988842632736      1.26751110123748     -3.64376729154033
  H   4.78047326986800     -2.41212377004065     -3.05177222069470
  H   3.30037261435508     -2.26320305545317     -4.00404775920389
  H   4.76065704106358     -1.39079333715062     -4.49126244417622
  C   6.52959518767279      0.95229836209783     -0.01083853882095
  C   6.20702746929922     -0.55155363797944     -0.22150262904408
  C   6.89575078245595     -1.11284928738004     -1.45345901220052
  C   7.42657856141819     -2.32050815077735     -1.72818839117221
  C   7.91475090923518     -2.25160405578300     -3.09199262485416
  C   7.64131898765893     -1.00701893825820     -3.52753268470956
  C   7.88685464001579     -0.29826918572169     -4.84512699370746
  O   7.02506917745208     -0.30708326861173     -2.53871076730846
  H   7.59661616380526      1.10223559625524      0.11707745431741
  H   6.20073156644152      1.52614393642233     -0.87138657860541
  H   6.01779274356758      1.32435951543581      0.87078788561526
  H   6.52360796604193     -1.13486281965771      0.63899910623507
  H   5.13009309926192     -0.67965653723215     -0.31942182880896
  H   7.47831949834806     -3.16793851402258     -1.06903270933162
  H   8.39926647719868     -3.03745900258932     -3.64309516206694
  H   6.94884624521913      0.03674725699056     -5.28468322532545
  H   8.52317710719232      0.57387751829266     -4.70209164420137
  H   8.37525649523600     -0.97747582560150     -5.53798277503938
