48
Coordinates from ORCA-job dimer_009909/dimer_009909
  C   2.61145437772384      0.37299485227130      2.81968180197524
  C   1.91661695597972     -0.87483470076536      2.21402356473174
  C   1.05048776688994     -0.50932951880818      0.97994884508702
  C   0.43732255009350     -1.77396448417227      0.32341827825969
  C   -0.24565786341679     -1.46926845688320     -1.01661796326544
  C   -1.41362318633796     -0.47862316754069     -0.94562302294349
  C   0.63207364459745     -1.44632416528047     -2.26225340741167
  C   -0.33616782195427     -2.60382726916387     -2.03109432038396
  H   3.21552202524446      0.10184873260491      3.67930158630456
  H   3.25608950771643      0.84120878184471      2.08353889288463
  H   1.87633530910017      1.10469410401338      3.13731666680381
  H   2.66690223768811     -1.60060804170045      1.91944629693700
  H   1.29319253872535     -1.34909543709653      2.96477386749391
  H   0.26215196929565      0.17064277636309      1.28055580856708
  H   1.66049654054997      0.01264350237778      0.25200145936409
  H   1.22201146505652     -2.50343200350346      0.16007623548506
  H   -0.28052204512846     -2.22363374985625      1.00207426832845
  H   -1.06975661823387      0.49966204294760     -0.62648929889193
  H   -1.88411235530866     -0.37243658585443     -1.91664353760446
  H   -2.16132481244544     -0.82479762263452     -0.23880313308640
  H   0.39984910736764     -0.73648068103922     -3.04016724752927
  H   1.68676938044011     -1.63784112284205     -2.14662098623139
  H   0.07552595416133     -3.56323695220289     -1.76041918832367
  H   -1.21468168406659     -2.66508341269534     -2.65363136858618
  C   3.67012909701708      1.02486487731357     -2.01214708462102
  C   4.55953835016878     -0.24697629676953     -1.99609217165707
  C   4.44233914517200     -1.01325932866080     -0.65205911855962
  C   5.34401681703640     -2.27440003485370     -0.62337808625784
  C   5.16881778060276     -3.08145061173074      0.67070723791103
  C   5.64551863828283     -2.37845416098245      1.94753238321464
  C   3.95037714105545     -3.99151580071667      0.76651487087584
  C   5.34181468686461     -4.59405381450122      0.58893243146518
  H   3.77652576013645      1.55960732996083     -2.95023206700719
  H   2.62502645981878      0.76179492870886     -1.88800403732320
  H   3.94862904341144      1.69419850136419     -1.20531252641772
  H   4.27257952222838     -0.90286351626324     -2.81152324886862
  H   5.59537047833026      0.03039027203402     -2.16215086238545
  H   4.71038591207036     -0.35063157451344      0.16190002011186
  H   3.41359468628856     -1.31161578328406     -0.49219031285386
  H   5.09982322672889     -2.90422097352156     -1.47121735520219
  H   6.38407308298364     -1.98320693247114     -0.72954925817485
  H   5.08463595068228     -1.46638549778962      2.12176137558319
  H   5.51767264825098     -3.02401755516196      2.80916366410573
  H   6.69701953541274     -2.12120113284686      1.86577074064073
  H   3.46569253061717     -4.10348479834841      1.72338766600059
  H   3.27425148477889     -4.02478671713333     -0.07281761538339
  H   5.58891907504429     -5.02898790192504     -0.36659242340425
  H   5.78584858327806     -5.10388195729092      1.42931527924308
