38
Coordinates from ORCA-job dimer_001795/dimer_001795
  C   2.29098495576177      1.16697344381649     -0.24086984277988
  O   1.33191678752537      0.15190581848096     -0.51106893015551
  C   1.69442853901515     -0.74311841217552     -1.52316823982684
  C   1.54029491845513     -0.20002759690460     -2.95766640827506
  C   2.81706024123483     -1.74488635338220     -1.22635269424100
  C   1.36005103779929     -2.21005242405697     -1.25427461526573
  C   0.66953586047116     -2.59462122569491      0.05746655851743
  H   3.27226257106106      0.74141504050763      0.00851677370132
  H   2.41500505961239      1.85250366905301     -1.08733452695874
  H   1.92633425520963      1.74111312746100      0.61591435652751
  H   2.20386287246892      0.64092118348872     -3.13171467656689
  H   1.77617274768757     -0.97596606743745     -3.67770109693193
  H   0.51769085507609      0.12806131412670     -3.12134518486697
  H   3.47561133412861     -2.03442369369386     -2.02941131457260
  H   3.29945974934826     -1.67613485814513     -0.26322940374746
  H   1.05383035349117     -2.78765728148072     -2.11336514621837
  H   0.99047389003447     -1.93554787472158      0.85757146571645
  H   -0.40858541698660     -2.50827694538309     -0.04091426470164
  H   0.91005731182299     -3.61844795284649      0.32899093299639
  C   5.99648141580469      1.27362024807706      0.78790270472659
  O   5.58637276072804      0.01788635141899      0.26235349235415
  C   6.17246904546883     -0.32879639609744     -0.96043877831202
  C   5.65043969343424      0.44990737779887     -2.18388406665128
  C   7.64034736716716     -0.77599583195251     -0.94708010733532
  C   6.52369853144304     -1.80602150827569     -1.12891513202743
  C   6.22676457284691     -2.79261973790331      0.00439700678652
  H   7.08699583522625      1.33778736809375      0.88725702445346
  H   5.65813532917571      2.11263794161265      0.16780529530879
  H   5.54763917763478      1.37593407449732      1.78098638327883
  H   5.89181369862132      1.50542936734348     -2.10900666321111
  H   6.10201102552306      0.06160390835269     -3.09024061414388
  H   4.57262646921966      0.34224629911991     -2.25872427263278
  H   8.26478207218369     -0.52185546385329     -1.78913291510631
  H   8.15203630354694     -0.77503080681391      0.00258759164990
  H   6.39527715092589     -2.20743955905414     -2.12291805610141
  H   6.27901988404478     -2.28973663823302      0.96448940877581
  H   5.23115558655981     -3.21175919664722     -0.10686524473347
  H   6.94540415722733     -3.60729870849608     -0.00391679942942
