40
Coordinates from ORCA-job dimer_010866/dimer_010866
  O   1.11094289437151      0.97532781162579     -0.53293338706836
  C   0.65688370833543     -0.30487796241353     -0.12515266377334
  C   1.02761556694935     -0.61353654266954      1.36174606608820
  C   0.45621517598522     -1.98616798367155      1.79935175689934
  C   -1.09440546751478     -2.04517420052326      1.61615800959556
  O   -1.77400709592629     -1.21031075007281      2.54882875158367
  C   -1.47011112846220     -1.70733448125027      0.13770106019457
  C   -0.88720867249733     -0.34122943379831     -0.30721140528146
  H   2.08465997017020      1.02484139243225     -0.42285558947458
  H   1.08675925734072     -1.09625717310705     -0.74960808662853
  H   2.10542075156693     -0.60918559569849      1.47440197731799
  H   0.64201734567661      0.17860997718140      1.99343069695117
  H   0.90470657280824     -2.77382002174873      1.20277706401874
  H   0.69769758763627     -2.18204804436006      2.83922077103680
  H   -1.42992057153142     -3.06199568498501      1.83676911832373
  H   -1.56149428509043     -0.27742723640376      2.36613342626835
  H   -1.08335101680241     -2.49101022561350     -0.50535402008235
  H   -2.55079075037265     -1.70422060255383      0.03746296027397
  H   -1.32639758256272      0.47072314666712      0.26172035028833
  H   -1.12276685886426     -0.15809691636822     -1.35054894393176
  O   3.90200948288513      0.99695340092122      0.01785060917483
  C   4.90371240131364     -0.01881301833320     -0.03448966176670
  C   5.39073047189470     -0.41693101409630      1.39406274581010
  C   6.41056472695979     -1.58175520732369      1.32041692130005
  C   5.81952994433956     -2.82330886348800      0.57804631838841
  O   4.80662728545473     -3.47371226481653      1.33815070920834
  C   5.31736036846393     -2.40576355961675     -0.84149271452259
  C   4.29242296082021     -1.24614090470528     -0.76600459297613
  H   4.25664829438466      1.79650741209373      0.44803524097076
  H   5.76914083868834      0.32782639248708     -0.61112596598339
  H   5.85060310682575      0.43955596969243      1.87688445739878
  H   4.53321370995348     -0.69733121180352      1.99613093717167
  H   7.29913237540438     -1.25152236838458      0.79189618227654
  H   6.71278874698179     -1.87491068280293      2.32112394434837
  H   6.61515449542295     -3.56392540268025      0.45927246568144
  H   4.05694986494009     -2.86764131201601      1.47808443677976
  H   6.17059951949985     -2.09851846470168     -1.43756275710826
  H   4.86827225026870     -3.26587168081414     -1.32840049808100
  H   3.39936623746816     -1.56399889953100     -0.24100031399006
  H   3.98705928681398     -0.94917349974919     -1.76477884568101
