44
Coordinates from ORCA-job dimer_006217/dimer_006217
  C   -0.31497384770635      0.71971159476326      0.20371272087977
  C   0.46752832861745     -0.36178691930900     -0.58365806924669
  C   -0.50779800248460     -1.18141563061167     -1.46248218340394
  C   1.59779207628579      0.29255476110838     -1.42243549120062
  C   2.72566212571269      0.60037796564448     -0.40194973263815
  C   2.53605175089337     -0.43258982986904      0.77498158536240
  O   2.30381877781506      0.20422688079756      2.03084676161911
  C   1.26911960160747     -1.25934347356769      0.39398442222923
  H   0.34692322276289      1.27685292778596      0.85635727190778
  H   -0.79675272966177      1.40997268718286     -0.47896456119769
  H   -1.07882141572819      0.25626265130856      0.81707754282233
  H   -1.01918523508778     -0.53475063576942     -2.16687690442297
  H   0.02611025184612     -1.94151016554573     -2.02108094941394
  H   -1.25462643595577     -1.67020085665476     -0.84666804838657
  H   1.95122686281607     -0.41441659267308     -2.16369447137440
  H   1.26005291038081      1.17907351693653     -1.94466613874948
  H   3.70792980653349      0.52192855838808     -0.85196563449240
  H   2.62263297512786      1.60648021938009     -0.01167846929319
  H   3.40698811387208     -1.09151399133365      0.84338652052204
  H   3.10192431837114      0.70015646810252      2.29183813048024
  H   0.70307656151344     -1.52698600751921      1.27833145357502
  H   1.56887652186966     -2.17127249621098     -0.10881333407719
  C   7.30133528758739      0.98814584792761     -0.52909899811123
  C   6.94357113718472      0.05031307378925      0.65173893460250
  C   6.01456567304547      0.79099177322776      1.64343194373854
  C   6.31392701990427     -1.26692979636604      0.12418159703794
  C   7.51424718405266     -2.10349734993033     -0.39312003653281
  C   8.76937147622354     -1.60577816856068      0.42248298730184
  O   9.79174787594652     -1.07335966532452     -0.41921651430779
  C   8.23495288575732     -0.46250810627616      1.33949674993245
  H   7.99256160880141      0.50530451396618     -1.20999768951253
  H   6.40757753676734      1.26617095234719     -1.07556239431721
  H   7.77126104825541      1.89221689621215     -0.15966928986156
  H   5.12735427133634      1.14674096136548      1.13350685117116
  H   5.71478089014199      0.13446231637260      2.45238427007358
  H   6.52429955599848      1.64830807793120      2.06940824421855
  H   5.82670369351640     -1.78600795014573      0.94106272534659
  H   5.57416420613995     -1.09014897893659     -0.64626764915523
  H   7.34772002620565     -3.16694173813965     -0.26786960324721
  H   7.68058696776820     -1.91866863531307     -1.44837843889804
  H   9.17184843773905     -2.41943283916717      1.03466448962586
  H   10.14886777717768     -1.78542219271692     -0.98178555705576
  H   8.98121193208721      0.31361785232258      1.46235150200753
  H   7.99447496896157     -0.86331447691914      2.31729545444192
