38
Coordinates from ORCA-job dimer_002803/dimer_002803
  C   1.12031541085494      1.17787244218207      0.00900841357703
  O   1.28197720388345      0.26998020691590     -1.07055154137189
  C   2.06828715982754     -0.85297542559349     -0.74881119845202
  C   1.43640528064478     -1.95576845036592      0.18258640149456
  C   1.93587232202499     -3.04063431198016     -0.82720756831365
  C   2.17939433266127     -1.91966470617782     -1.89505671826332
  C   1.04397615673102     -1.80802344243524     -2.93475479025847
  H   0.60077648187222      0.71679508431260      0.85871283502764
  H   2.08433690187155      1.56087999482010      0.36780872295136
  H   0.51999566089559      2.02028195085574     -0.34764772765325
  H   3.05617362540752     -0.55153843375728     -0.38226364635337
  H   1.81375376752227     -2.01634594873381      1.19597431436585
  H   0.35510359096394     -1.88535342975825      0.20689981626012
  H   2.85284847686238     -3.51780720081331     -0.50237604667610
  H   1.21995914485309     -3.80515134777898     -1.10181189853836
  H   3.14089802192125     -1.95077708177156     -2.39244209533039
  H   0.07860356315425     -1.77505129651615     -2.44233475603332
  H   1.15365625165992     -0.90186310509093     -3.52184112274726
  H   1.06199613171744     -2.66226475751289     -3.60397445868577
  C   5.24057159228285      1.65940407975548     -0.40597440523223
  O   5.17553754331058      0.28594316541462     -0.04973625294564
  C   5.78171580964831     -0.57591645263735     -0.98311589754036
  C   7.35593123119240     -0.62190939767057     -1.01660265908050
  C   7.28012677934135     -2.18345481719650     -0.96368136897869
  C   5.76585417416414     -2.09129857641539     -0.56975909666971
  C   5.49979635334507     -2.30952726932799      0.93441806329433
  H   6.27580304908274      2.00481877078970     -0.52179215529592
  H   4.70301684553387      1.86309829829920     -1.34160489987334
  H   4.77187432440577      2.23636031575041      0.39702765248593
  H   5.36585511638714     -0.42841837035864     -1.98527362730160
  H   7.83993977490771     -0.18380175385624     -1.88103917412116
  H   7.78363395585848     -0.19872582216358     -0.11473980214345
  H   7.43554932076727     -2.64360246022146     -1.93263262933802
  H   7.92417192598383     -2.66626392311109     -0.23916145970098
  H   5.10015897411260     -2.70839750064365     -1.16085816558195
  H   6.16059448329500     -1.69191551809894      1.53259078465027
  H   4.47637206833121     -2.04868528474775      1.18324183723180
  H   5.66684512072001     -3.34966916836086      1.19603985614189
