44
Coordinates from ORCA-job dimer_006971/dimer_006971
  C   -0.66365890421871      0.72906399756287      0.02930940914779
  C   0.52358169215174     -0.26585473454333      0.14088549501499
  C   1.48571409257498     -0.06360216739586     -1.03134452806418
  C   2.56992339044594      0.58151390193784     -0.67851421945334
  C   2.57405884098027      0.91295394554192      0.81205243351971
  C   1.45888802131206     -0.02238615977705      1.37418707091275
  C   0.74719063802180      0.58393710525561      2.60531264916362
  C   2.10048629382201     -1.37929400064654      1.76880820446421
  H   -0.30522517017295      1.75189380167822      0.03863704801234
  H   -1.19798473494675      0.56629213882036     -0.90072766874906
  H   -1.36075129791687      0.59820787381690      0.84890782646044
  H   0.12565154405382     -1.27384474482146      0.16526379931180
  H   1.23392607558017     -0.38465558073729     -2.03025707680822
  H   3.37207695209953      0.88236692522159     -1.33418796067385
  H   3.53095866566073      0.72509819617435      1.28436622494182
  H   2.33225002902661      1.96020373684028      0.97169874764350
  H   0.33099169057806      1.55748191694488      2.37912890783446
  H   -0.05440801690629     -0.06352092700396      2.94217939287383
  H   1.45327908543326      0.69919930349784      3.42012600078386
  H   2.81686899390587     -1.24185445184483      2.57017652093538
  H   1.34109207111086     -2.07492938469015      2.10632787793877
  H   2.61244955358510     -1.81477493820578      0.91854102562166
  C   6.21183119816765      1.16785601910289     -0.39698009540235
  C   6.15629342314702     -0.36972376250221     -0.18596361185245
  C   7.05840359404553     -1.06454053010361     -1.20816806249247
  C   8.19109660126866     -1.45932700319513     -0.68122036341378
  C   8.26320713593665     -1.14144967587157      0.81142525175040
  C   6.77161460175861     -0.85678083508407      1.16963645780493
  C   6.62529830818941      0.14821569611984      2.33512971515199
  C   6.08992547580748     -2.19615655695276      1.55701472179708
  H   7.22516510966188      1.53161978589184     -0.27266956013426
  H   5.88547314889301      1.41704951834674     -1.40086762831641
  H   5.56894780303890      1.68372759694856      0.30636681116711
  H   5.12531957365779     -0.69369310595226     -0.27019103859040
  H   6.77577114325624     -1.14934899065005     -2.24603967460977
  H   9.00577797659293     -1.93336906820682     -1.20685220745578
  H   8.67099531939232     -1.95557233451881      1.39979044282529
  H   8.88694632039622     -0.26904370263744      0.98680919758646
  H   7.13143748082929      1.08023107139498      2.11758844861435
  H   5.58032746115528      0.36108594116963      2.52896605175505
  H   7.05740864165699     -0.26817361423393      3.23826528813340
  H   6.54574367413028     -2.61108375608240      2.44820961605956
  H   5.03538208243721     -2.04294187854751      1.75183137162643
  H   6.18997481939886     -2.91540161306227      0.75259480116320
