36
Coordinates from ORCA-job dimer_005639/dimer_005639
  C   2.23045738929041     -0.94892446706022      0.89032640834753
  C   1.73279500554349     -0.61848458716426     -0.54717292176589
  N   2.77786956043169      0.00523839312420     -1.35637249922501
  C   3.15043436922686      1.32970498436579     -1.32995318941966
  N   4.14907126522358      1.55817313023909     -2.12924296898138
  C   4.46043574476824      0.33731969874532     -2.70886737409610
  C   3.62837470777387     -0.62671678822150     -2.23206764421597
  C   3.55908398741894     -2.10981953135484     -2.51970407691767
  H   3.12137785354818     -1.57329476649808      0.84611791424616
  H   2.47873020119312     -0.03587641679019      1.42057120068476
  H   1.45313036621669     -1.46938248812596      1.44126729861038
  H   1.40790275880282     -1.52854819602585     -1.05093293811669
  H   0.87739419110078      0.05823486670497     -0.50713411831027
  H   2.63643236160617      2.05374519273861     -0.71177871940796
  H   5.25809430227008      0.22358737730681     -3.42097668724360
  H   3.67367852333530     -2.68595294545211     -1.60299121375869
  H   2.61357278674599     -2.38111047580555     -2.98519734926214
  H   4.36435194099917     -2.38080965683650     -3.19515286626354
  C   6.45969059329919      2.57958870759363      0.30861775035810
  C   7.09516636894886      1.59404032483358     -0.70402812876401
  N   6.65716307042703      0.21457916399535     -0.48131888482907
  C   5.65431260669715     -0.24168208233122      0.33862508700908
  N   5.50240337642465     -1.52881206810520      0.23428861609930
  C   6.43947048079668     -1.95070470576104     -0.69501004045561
  C   7.15055673305449     -0.88414477855089     -1.14645872135231
  C   8.26430129430247     -0.78430949710193     -2.16452735074090
  H   5.38436064440322      2.62178997613812      0.16684943014288
  H   6.67937044115188      2.28441702629791      1.32970485247841
  H   6.86465406032433      3.57274157622450      0.13958830193346
  H   6.81958948986590      1.89495688723365     -1.71934440201043
  H   8.18374222224480      1.62807172115161     -0.62389773877904
  H   5.08219150891798      0.41803191279925      0.97411786300112
  H   6.54281857631784     -2.98268372667083     -0.98162319060855
  H   7.99000649163405     -0.11854193899307     -2.98066556361207
  H   9.18002518774610     -0.40573638461025     -1.71445567061886
  H   8.46832360094697     -1.76755089203293     -2.57705630715558
