48
Coordinates from ORCA-job dimer_007577/dimer_007577
  C   0.74177528721730      1.54630062351336      0.53606828643503
  C   0.57728739342036      0.03449305134378      0.83726366425510
  C   0.22316475194863     -0.19302761553017      2.32943849862322
  C   -0.44929460113101     -0.63321456881074     -0.10766054926727
  C   -1.87814718520627     -0.07076323691604      0.05124433239446
  C   -0.01181253746161     -0.68564620642412     -1.61276752954001
  C   -0.30036542603706     -2.22203891168659     -1.63272746494633
  C   -0.43712601398101     -2.20106282579347     -0.07529604957618
  H   1.57213709973666      1.95386314606316      1.10221099603341
  H   0.93388523929521      1.70962267610445     -0.51829286829936
  H   -0.15160886017337      2.09441551042268      0.80917176800704
  H   1.52880580996174     -0.44571232465823      0.64688666148392
  H   -0.67088543169519      0.35370451932356      2.60281503526648
  H   0.05531768336854     -1.24559994413572      2.52772513789167
  H   1.03347795651290      0.14937311182301      2.96368963350993
  H   -1.90319157666261      0.99099138877621     -0.16279817519767
  H   -2.55030625088162     -0.56916550742919     -0.63749303613756
  H   -2.24829864078920     -0.22950187376740      1.05695590280256
  H   -0.59413344702677     -0.07958038244581     -2.29472474381230
  H   1.03716349342674     -0.45739826913436     -1.75147919849801
  H   -1.22688019204329     -2.47295234529682     -2.13516859665409
  H   0.48984782659141     -2.84683101210670     -2.03105252799812
  H   0.43474752412832     -2.60092343930334      0.42668453147454
  H   -1.32097392035225     -2.67235785034051      0.33496386972129
  C   6.42622987432023      1.62989666423633     -0.35329419180268
  C   6.46692534407789      0.07972166813719     -0.36944242691494
  C   7.58088186684025     -0.45054677016090      0.57012299576942
  C   5.08740703322617     -0.53092782869405     -0.02632372034081
  C   4.59494248669465     -0.16249541608178      1.39018847751642
  C   3.97685989442192     -0.28275415033616     -1.10431012516074
  C   3.64814624944887     -1.81124523918190     -1.09854756692767
  C   4.96486853247467     -2.07077900868985     -0.29605866671187
  H   7.35799556412735      2.03552670774244     -0.73169282948172
  H   5.61604785801799      1.99903653137234     -0.97200064532654
  H   6.28395830313179      2.00149624225098      0.65405692919915
  H   6.70496578489789     -0.23679240465224     -1.37892556367863
  H   7.44262449090278     -0.08298972062123      1.57946083576566
  H   7.57715512530450     -1.53437755233291      0.59676033707225
  H   8.55409158625820     -0.12034266758068      0.22401404512813
  H   4.46177527734232      0.90815360043319      1.48829302875135
  H   3.64231164029111     -0.63892676688157      1.58876487578496
  H   5.29855600526706     -0.49407820146719      2.14409768938655
  H   3.17766661636481      0.38780990096450     -0.81747056292761
  H   4.38699555423142      0.04785882481249     -2.05020568320727
  H   2.75684941479475     -2.04978245675429     -0.53146782096013
  H   3.57638813590609     -2.28813175842388     -2.06842824800589
  H   5.76486395985457     -2.44577919445356     -0.92195267986662
  H   4.88041841963588     -2.70245471722820      0.57889193896751
