38
Coordinates from ORCA-job dimer_010827/dimer_010827
  C   0.44528812255759      1.56485041572277     -1.17103968146205
  C   0.94467818439403      0.18938978460106     -0.66437673039850
  C   1.83700527585831     -0.51690451914757     -1.71074380156294
  C   2.20650069862846     -1.93132720337640     -1.20972366004515
  C   2.74188876956677     -1.95111174827682      0.24994325687197
  O   3.41028103640034     -2.87042729190443      0.67648591168606
  N   2.38099953020638     -0.88570979023093      1.06341382001289
  C   1.76259140778864      0.36559669847769      0.64123506910240
  H   1.28473261532646      2.21074385002108     -1.40520550302306
  H   -0.15116720773276      1.44290314188649     -2.06903155563202
  H   -0.16438671139307      2.05487800318909     -0.41897391670747
  H   0.08978965493851     -0.44481863036314     -0.45389167187747
  H   1.31654348569367     -0.59227916741576     -2.65970200367268
  H   2.73267447528554      0.07114093039544     -1.87920306609857
  H   1.32502496298791     -2.56956492703152     -1.23275359483765
  H   2.95517378366986     -2.39814344918594     -1.84375309836073
  H   2.72804617268559     -0.93898644870518      2.00907455214275
  H   2.51834380248791      1.13848819485057      0.47573911376589
  H   1.10713269074732      0.72316884674197      1.43682614398968
  C   5.75074058432659      0.46224369115819      1.88066410940390
  C   6.11637171724160     -0.77780667519478      1.02802845752750
  C   5.81650405835705     -0.55322450830463     -0.47118347969480
  C   6.07027447183828     -1.86852771497010     -1.24007615955161
  C   7.47865222160156     -2.46408615970805     -0.96439457586855
  O   8.02992559522036     -3.21089952363629     -1.74602082469083
  N   8.06104452922382     -2.13727329761075      0.25458520149029
  C   7.62432032155223     -1.10515882712594      1.18755405263700
  H   6.31731487448364      1.32819822840206      1.55581106793600
  H   4.69594466796607      0.69090708435966      1.78184476156270
  H   5.96754833060386      0.28681106973226      2.92919220109791
  H   5.53539106912724     -1.63114574799269      1.36611209772798
  H   4.78751846627161     -0.24176051527291     -0.60466215494916
  H   6.44811915018800      0.24009878880289     -0.85634556672671
  H   5.34180866225839     -2.61609343243521     -0.92660465968790
  H   5.96914668168371     -1.73773528011816     -2.31318033413601
  H   8.96648419494174     -2.55211033213361      0.41407517954783
  H   8.19703961395033     -0.18509935255950      1.04201410080545
  H   7.81516410406458     -1.44332745964055      2.20734839567558
