38
Coordinates from ORCA-job dimer_005634/dimer_005634
  C   2.75171992809326      2.32806479592625     -1.47501761826868
  C   1.83061596329239      1.58219694091109     -0.46540399789585
  N   2.24068320676791      0.19340310563833     -0.27555981797750
  C   1.86413765389541     -0.85461781478578     -1.08107143754139
  C   2.47833107385675     -1.98016780389209     -0.63735374422724
  C   3.27451071265434     -1.60461141151532      0.49161500921723
  C   3.11106263881648     -0.26915622803805      0.68127624725896
  C   3.71979081021381      0.64210154383579      1.72724150882773
  H   3.78201489699905      2.31617136975036     -1.13318218678709
  H   2.71107352222443      1.84625572138017     -2.44678955847920
  H   2.42966270708634      3.35948065418695     -1.58324736776477
  H   1.84450236547499      2.08572550337565      0.50084697992887
  H   0.80039393980352      1.58985133626288     -0.82400825435781
  H   1.18332520865836     -0.70354499177224     -1.90295491919610
  H   2.38040838807653     -2.96617664718254     -1.05280284998792
  H   3.88668541397476     -2.25347492594120      1.08783504169659
  H   4.29993440777950      1.44160347191928      1.27156456995454
  H   2.95400981854182      1.09561825826746      2.35304132842717
  H   4.37884420730252      0.06393445564633      2.36674561369193
  C   6.83200271417208     -1.35013343745237      0.22744146649255
  C   6.42734436043404     -1.88059185894599     -1.17892261885139
  N   6.40127867273257     -0.80375458007739     -2.16296822921795
  C   5.30874093388084     -0.01421800456022     -2.42492369398291
  C   5.67439591558217      0.94015694836060     -3.31744210738799
  C   7.06051974147300      0.73105976809862     -3.61105389296675
  C   7.47443026163656     -0.33948182670487     -2.88428521164229
  C   8.83715506011959     -0.99759970083272     -2.81496759500866
  H   7.84068793730025     -0.95123780920980      0.20930309997653
  H   6.15113922938771     -0.55867540167917      0.52265908366582
  H   6.78352735940178     -2.14778143365862      0.96211547496593
  H   7.12169356396979     -2.65165185120563     -1.51221141873386
  H   5.43077353657929     -2.32201437842325     -1.13297305702337
  H   4.36006041120312     -0.21697228514567     -1.95479208267209
  H   5.04389970106292      1.70379910657605     -3.73198758805439
  H   7.66568570554011      1.30731969222791     -4.28446061927518
  H   9.23501794321226     -0.99128177346736     -1.80304338646356
  H   8.79634269056224     -2.03053293859284     -3.15413939229509
  H   9.52852039823596     -0.45900156928064     -3.45491077804458
