40
Coordinates from ORCA-job dimer_006861/dimer_006861
  C   1.13434292580232      0.83941100690303      0.74661699129420
  C   1.05599041898227     -0.60122667819911      0.16948659427479
  C   -0.30382664427160     -1.25166459117348      0.57792817960189
  C   1.21402831674820     -0.56612675953667     -1.38633516738170
  C   1.55896002188205     -1.98849463566807     -1.92512002995042
  O   2.64888893721950     -2.54548480500993     -1.19393962003767
  C   2.39217283281189     -2.59749875937851      0.20311625764218
  O   2.15761516692244     -1.30847693749850      0.74238976105647
  H   2.09749349554894      1.27964781713869      0.51121117647382
  H   0.35045848680126      1.45698333542546      0.32139473603606
  H   1.01744667276079      0.81385895949365      1.82510470880629
  H   -1.12027043492930     -0.61292406324416      0.25989642748886
  H   -0.44228551957031     -2.22643738736488      0.12758669063515
  H   -0.34790548379073     -1.35824844237232      1.65671150878316
  H   0.30266533882056     -0.19728253315674     -1.84441455313069
  H   2.01940119161498      0.11248511412622     -1.64379054782655
  H   0.68071170301437     -2.64274824701968     -1.86923620505079
  H   1.86523353915118     -1.93380171920057     -2.97387559663944
  H   1.54718618199505     -3.28125962118405      0.41540799234154
  H   3.29808834351708     -2.99596511104706      0.69192160329782
  C   7.34395688777966      1.55493848909087     -0.41683494929714
  C   6.32273167615271      0.40150802523717     -0.21335564423088
  C   4.94920817520843      0.80458806313456     -0.83771407408822
  C   6.86350166079334     -0.91573674499209     -0.85617200531786
  C   6.02954164277008     -2.13151641248440     -0.35095582739215
  O   5.95161308012143     -2.12482387652952      1.07323561750610
  C   5.44818641143084     -0.90312804178644      1.60020239312254
  O   6.21606684118008      0.21992955830584      1.19827466689638
  H   8.28573565790614      1.30071213276533      0.05777951372196
  H   7.51547476090489      1.72258516920682     -1.47457945202220
  H   6.96577125030897      2.46885716512056      0.02872488919733
  H   5.08378685874132      1.04539560131914     -1.88593894128270
  H   4.22188496913085      0.00584756418347     -0.76085346350762
  H   4.56078040819384      1.67901643221514     -0.32775337791404
  H   6.82268895497417     -0.85075301044359     -1.93781990001933
  H   7.89853250770257     -1.04817631294315     -0.56109822353849
  H   5.02952391392000     -2.12271974126557     -0.80286312898214
  H   6.51409219182007     -3.06811654580707     -0.64030397305568
  H   4.37926645081521     -0.77415750124521      1.33347351351445
  H   5.52952893311412     -0.96855998211513      2.69759284197474
