38
Coordinates from ORCA-job dimer_006996/dimer_006996
  C   1.45527528866967      1.92513596763039      0.61460729211586
  C   1.10274605175839      0.47161820328306      0.21418885295933
  N   2.04939093272859     -0.17394930625411     -0.69900878744941
  C   2.41058662639684     -1.21675591717824      0.14499374378556
  O   3.16989145258527     -2.13692837166555      0.03727686896038
  C   1.42574532109947     -0.67985533260101      1.25057212150331
  C   2.11384212206462     -0.26166850360240      2.56568686886056
  C   0.23980285229980     -1.63462968482012      1.51456566003731
  H   2.49487316411179      2.00719638273167      0.90936961946872
  H   1.28330581033850      2.59528681250166     -0.22242355031723
  H   0.83175402308621      2.24790098777007      1.44257587461944
  H   0.07046559548802      0.43103822080965     -0.13561412398387
  H   2.32408303106554      0.05732626159868     -1.64093421515009
  H   2.98836785638462      0.35085199436139      2.38212339611205
  H   1.42504993239280      0.29723206427936      3.19121632871227
  H   2.42683055129541     -1.14807473516478      3.10924434923576
  H   0.58705853567120     -2.52508276341771      2.03019219725048
  H   -0.50430105557195     -1.14516001732298      2.13532732428790
  H   -0.22981447110958     -1.93727700186307      0.58434360937995
  C   5.50148427998676      0.78168855538031     -0.91064223286399
  C   6.11991288981637     -0.48688209722101     -0.27366148354005
  N   7.53918445162458     -0.70462987792007     -0.56885516448140
  C   7.99178534953419     -0.65684504188645      0.74402939548920
  O   9.07449475395529     -0.76048999712128      1.24634236632750
  C   6.52026589230135     -0.42219232075438      1.25510605014817
  C   6.31347155596239      0.92622980641216      1.97498992472544
  C   5.97766364536946     -1.60184946711312      2.09243842294345
  H   6.14415145719712      1.64249876141529     -0.76815522920528
  H   5.36274964937993      0.63247221774588     -1.97677994529714
  H   4.53351804869301      0.98893917624623     -0.46718050073045
  H   5.48850348680837     -1.35041493598861     -0.49386402062120
  H   8.01710174172419     -0.87273860798612     -1.44003093515474
  H   6.75999981682295      1.74568631129644      1.42390848484692
  H   5.25591092516485      1.12989675898730      2.10220978829225
  H   6.77504088324301      0.88701629013972      2.95697576469717
  H   6.47606536182802     -1.63528091298657      3.05634277275375
  H   4.91074174475527     -1.48779294041240      2.25388048870525
  H   6.14325844507744     -2.54587093930924      1.58346262257678
