40
Coordinates from ORCA-job dimer_009670/dimer_009670
  C   2.21026430202577      1.83810227873731      0.51475634378312
  C   1.68142052627739      0.41702578147962      0.29705811644853
  C   0.14633059301653      0.34661261477176      0.20943849599034
  O   -0.27328322092505      1.13964786260566     -0.90064661284001
  C   2.47011761900154     -0.55347246627226     -0.57315252714437
  C   2.37877811399014     -0.78137519015756      0.93205807281791
  C   3.61078784471472     -0.59385401311392      1.83104137759882
  O   4.24409334863210     -1.86614755284957      1.97723370277097
  H   3.29053260421717      1.87512143724599      0.45141449271191
  H   1.80021850504200      2.49305358026433     -0.24919987213931
  H   1.90743277678641      2.21498413930965      1.48695359324037
  H   -0.16096255258913     -0.69982925991466      0.09588293454236
  H   -0.28401665113674      0.71599720379902      1.14960689336805
  H   -1.24725981207478      1.12930837465377     -0.95507818731980
  H   1.92419598952636     -1.21497038434856     -1.22787264357941
  H   3.41043949628270     -0.21483989303011     -0.97858090205217
  H   1.74378625886336     -1.58961137483659      1.26196247923106
  H   4.29062121078731      0.13850333836599      1.38334662292127
  H   3.29206005390010     -0.19434054118671      2.80335626265057
  H   5.01128284940921     -1.77364099000398      2.57338655875824
  C   6.47690918459891      0.94783377159556     -0.79828275483313
  C   7.03269020291411     -0.31175967923237     -0.12604266373788
  C   6.39633399809125     -1.61695860362079     -0.63961801561765
  O   6.62416331166912     -1.69775493687145     -2.04697665134162
  C   8.50822999263905     -0.36371033287327      0.25177547333033
  C   7.44486665985368     -0.29243242005086      1.34207646427171
  C   7.29004691060664      0.97670865402130      2.19614117624971
  O   8.01207092705259      0.77101164630662      3.41228283490285
  H   7.03236755503730      1.83135266566421     -0.50869847516918
  H   6.54883030461898      0.83628974373860     -1.87683013837453
  H   5.43324386055414      1.09699691376413     -0.54224049550805
  H   6.84496683808144     -2.46576840608886     -0.11032566657294
  H   5.32406085958099     -1.61914256813572     -0.40227235379419
  H   6.17178087720906     -2.48713940889635     -2.39879233122431
  H   9.04128667645836     -1.29169036555244      0.11338616513312
  H   9.10602156162210      0.51654323361029      0.07488667343355
  H   7.27312664980310     -1.19745362850824      1.90342041251079
  H   7.67124272084537      1.84330107539288      1.64432594074356
  H   6.22599752260164      1.16192551097024      2.39538032977522
  H   7.96823486241452      1.58149156124731      3.95416435806412
