36
Coordinates from ORCA-job dimer_006203/dimer_006203
  C   0.53749819131341     -0.23398403819086     -1.84955763793837
  C   0.68975228096137     -0.32955552561602     -0.30566274975634
  C   0.33108762354656      1.03235828394547      0.35199331388443
  C   -0.17324603124243     -1.51797009645424      0.29705102386445
  O   0.79562087889371     -2.38946199878998      0.88940770137536
  C   2.03851327589386     -1.80946868579443      0.67234077069548
  N   3.08784423044702     -2.52440023504733      1.18238698663658
  N   2.07333422842219     -0.71033847445045      0.04311972743236
  H   0.79647459850851     -1.17942943849722     -2.31374601314121
  H   -0.48206149208890      0.02105119326758     -2.11827285556756
  H   1.20185207862554      0.53224006651708     -2.23456318078137
  H   -0.69204615721542      1.31024725723972      0.12236521385571
  H   0.44518139698599      0.97325725313614      1.42897678153199
  H   0.99478126805136      1.80413143397488     -0.02294036365066
  H   -0.87530178222163     -1.17280964839377      1.06133623464161
  H   -0.73115493250283     -2.05640762183513     -0.47429497943680
  H   2.88915026534524     -3.38642967879463      1.65899687909129
  H   4.04786300380744     -2.18366920593947      1.07591099793136
  C   5.00532920623467      0.91612850628994      0.84204978402482
  C   5.80257834070517     -0.17280035556349      0.07326259877156
  C   5.20610280970225     -0.35485091761074     -1.34921904608191
  C   7.35825700065570      0.14459522865728      0.03171755152623
  O   7.96536483807946     -0.95473295356979      0.72672839857455
  C   6.93575685981088     -1.78820708197101      1.11538059014535
  N   7.35193705414741     -2.90558592027940      1.80287346740496
  N   5.75498123140319     -1.45543333919428      0.81296950436572
  H   5.37395386226601      1.01580087397476      1.85687885297170
  H   5.09923867305305      1.87190659288184      0.33834297986553
  H   3.95413903171063      0.63551339396993      0.86464042452482
  H   5.30573820963664      0.56461143532496     -1.91552310958540
  H   5.71625221457800     -1.15138588837909     -1.87929544141048
  H   4.14897091013928     -0.59772782204848     -1.26135271732772
  H   7.74482948057977      0.18798099014463     -0.99078972542227
  H   7.60392162155529      1.07999632827145      0.54308172670205
  H   8.33339941601370     -3.04860922797816      1.97461361839857
  H   6.67834768919707     -3.57786401419749      2.12999155888356
