40
Coordinates from ORCA-job dimer_006974/dimer_006974
  C   1.01025965297523      1.78377670088895     -0.12037623448485
  C   0.73747254528477      0.26741319580428     -0.27303542314052
  C   -0.61866221856996      0.05195757474122     -1.00331281709996
  C   1.84232809990548     -0.48069929386027     -1.02602716894810
  C   2.12080454073080     -1.64373049387360     -0.48948553018462
  C   1.28029970508131     -1.91577822689279      0.75928539231797
  C   0.72122312613228     -0.49166788504291      1.11002397587097
  O   1.51066422467717      0.14742408757108      2.10190818501364
  H   1.97587266005039      1.97325751169334      0.33245762205668
  H   0.99014845559018      2.26198577048825     -1.09373037623028
  H   0.24887918257333      2.24018194042014      0.50311880993707
  H   -0.57590836457644      0.45972854423132     -2.00731675863283
  H   -0.85151999749933     -1.00461742554402     -1.07326655627341
  H   -1.41847698223210      0.54952813584109     -0.46547000764250
  H   2.27957349144570     -0.07442921599303     -1.92501366421181
  H   2.82964639253443     -2.36494347070980     -0.86709530246877
  H   0.47618540323070     -2.61461936197349      0.54076246790346
  H   1.85168138834269     -2.32637002185076      1.58668002563810
  H   -0.29171760746640     -0.54003983394876      1.51241507145781
  H   2.44182678374303      0.16041955950283      1.81239935071664
  C   5.06629529315813      1.02196337088542      0.33959841154242
  C   5.87356932098018     -0.28935008620611      0.49340466971259
  C   5.22045944894006     -1.18749101205719      1.58184480294361
  C   5.99238192962794     -1.07753972775657     -0.81449411836367
  C   7.18870653748684     -1.58227393669678     -0.99260335677598
  C   8.13998067407389     -1.22087535791518      0.14987519340429
  C   7.38826443771984     -0.03696096213516      0.85443403280516
  O   7.86176346556661      1.22059396027265      0.39544980708723
  H   5.48336915180842      1.65618776581312     -0.43318427438499
  H   4.04284824756127      0.78988159128707      0.06837727272123
  H   5.06586509566616      1.57908395736819      1.27046035275091
  H   4.22847570444111     -1.49467502508811      1.27245522858251
  H   5.81387054605986     -2.07981658790505      1.74592086949089
  H   5.14033385979914     -0.64834077994662      2.51983454149688
  H   5.14125923410760     -1.20972247586706     -1.46419610408170
  H   7.49932118102116     -2.20480892934318     -1.81815417110172
  H   8.27598599902720     -2.06333775335602      0.82406542041856
  H   9.12499964845522     -0.91197595179509     -0.18774544118979
  H   7.53626532235962     -0.04320828639267      1.93540413442610
  H   7.81960342018587      1.23930843534130     -0.57884633307926
