40
Coordinates from ORCA-job dimer_006472/dimer_006472
  C   2.37543787201672      1.15310037712926      0.79518465924403
  C   1.41888401567847     -0.05075872731952      0.95192468300914
  C   1.03871204453794     -0.77174219379427     -0.38778466578494
  C   1.94859198055777     -1.98823696562546      0.02332203428266
  O   1.42144099010584     -3.29651381945865     -0.07548412648911
  C   3.29053197642085     -2.04995116261927     -0.77027037307729
  O   4.12676457846285     -3.07231711738069     -0.24172563195620
  C   2.09576011460259     -1.36913438201680      1.46307798524532
  H   3.24708467220256      0.88897361655031      0.20807635322443
  H   1.86993837020708      1.97705305208513      0.30103311618424
  H   2.71567310416872      1.49477469024299      1.76805102894030
  H   0.55906892568671      0.24943431080424      1.53953896582900
  H   -0.01105900852022     -1.03751869172494     -0.44687224503228
  H   1.32108693538934     -0.26465367592821     -1.30246034383336
  H   0.59377800222623     -3.37086596582497      0.43259866679503
  H   3.06319714351622     -2.22584561025234     -1.83007242465659
  H   3.82147285192802     -1.09924057793623     -0.69220895534414
  H   3.58768826859155     -3.88086642223617     -0.13676344952343
  H   3.10915447966291     -1.28095133933894      1.83521534999269
  H   1.49919631616128     -1.89119261832015      2.20313060624554
  C   7.36257645147322      1.51244379102445     -0.59874109447015
  C   6.43363428664840      0.28293710526214     -0.47939969304838
  C   7.08103514889985     -1.07570663309974     -0.91514483227674
  C   7.13735199147041     -1.52364517143340      0.59456587699399
  O   6.64330255015667     -2.79342181023285      0.93913122015249
  C   8.57559488885203     -1.47411276711199      1.20548056672049
  O   8.52929639982607     -1.79529046698156      2.58980393919409
  C   6.25989344268440     -0.27011323847383      0.97623867121672
  H   8.31176644867834      1.33036085888895     -0.10831743564827
  H   7.55797776734819      1.74243973218407     -1.64136459942097
  H   6.90447159757126      2.38131947784859     -0.13684307527275
  H   5.49824844186870      0.49741514517947     -0.98083343819814
  H   6.41571270210391     -1.69656724790248     -1.50497432109275
  H   8.03612026278587     -1.00708359969069     -1.42070774933089
  H   5.74701364276776     -2.93116112954971      0.56293513673124
  H   9.21148274787908     -2.17336061590959      0.64721140514597
  H   9.00246996753599     -0.47457775811004      1.10008358254231
  H   7.93185979270497     -2.56453751695985      2.68050630058016
  H   6.65303976221701      0.34821044180420      1.77362448480097
  H   5.23744055692397     -0.53640063677137      1.21284747038555
