40
Coordinates from ORCA-job dimer_009920/dimer_009920
  O   -1.21266499188039      1.60282945941499     -0.33730389857403
  C   -0.33463796317749      0.63136927012646     -0.90693138257503
  C   -0.10654069127589     -0.49101562878253      0.14482417596930
  C   0.85898113953683     -1.57286987006292     -0.40847342146818
  C   1.10502095187693     -2.70849420994629      0.60554837172010
  O   1.76773257628763     -2.33625252721841      1.78790131978962
  C   0.08134994438583     -3.85014250780402      0.68852424702747
  C   1.46350121363632     -4.09293598572476      0.07621279479781
  H   -1.35248737369827      2.32675063524475     -0.97591726437543
  H   -0.75797850771585      0.19191236071850     -1.81874655940744
  H   0.63534919096863      1.06873109325908     -1.17714656632437
  H   0.30346087157668     -0.03749592899419      1.04099309593446
  H   -1.06204038715383     -0.93471781723540      0.40675815542038
  H   0.44305560431551     -2.00152159905031     -1.31337792558943
  H   1.81052055073183     -1.11438556426757     -0.67038246724202
  H   1.19925849460738     -1.73140780434083      2.30035608287853
  H   -0.11338511354099     -4.28221298332716      1.65847210585965
  H   -0.77610636195796     -3.81710876011424      0.03410171425641
  H   1.54285119196481     -4.22476519081249     -0.99198641147853
  H   2.16778247829705     -4.67401619153032      0.65331344306153
  O   7.03418663851375     -1.08314899724223      2.90914648395304
  C   6.06231099577331     -1.89086164938173      2.24417492532561
  C   5.80605949028919     -1.28038209294133      0.83719638013625
  C   4.74009633550193     -2.10512087394177      0.06750411220502
  C   4.46335743871160     -1.53318211566487     -1.33775346864947
  O   3.88621884147846     -0.25199291633432     -1.37100126432337
  C   5.40661526304998     -1.92259649055646     -2.48524973195568
  C   3.98294551013608     -2.48323953473023     -2.42957236469280
  H   7.19396476114402     -1.43913040132292      3.80311946350990
  H   6.40831070363009     -2.92595089232687      2.13170326476869
  H   5.11406408961584     -1.92350402736911      2.79639283602643
  H   5.47343206635506     -0.25605297537212      0.96758505975105
  H   6.73905693199854     -1.25655376781961      0.28274877357907
  H   5.07997526296340     -3.12941571391892     -0.03683776389438
  H   3.81215443577384     -2.12410336996948      0.63569633909557
  H   4.51988501873705      0.39746189404282     -1.01282693081745
  H   5.61667299073023     -1.17857144739148     -3.23874134709937
  H   6.23184458409144     -2.58301075951542     -2.26752637471804
  H   3.84332491886779     -3.52262717025614     -2.17476262771718
  H   3.26793626585224     -2.09579784653940     -3.14044715516369
