36
Coordinates from ORCA-job dimer_009787/dimer_009787
  C   0.86910827152008      1.13503256687560     -0.01709304068556
  C   0.63361808951512     -0.36340425707851     -0.22694700108105
  C   1.61906207484691     -1.14422148133077     -1.08636030195988
  C   1.59090668395367     -1.35069651700161      0.42617861417941
  C   -0.85123185864082     -0.79555691464347     -0.31816138916348
  O   -1.56375924683909     -0.58323699292608      0.89798550259284
  C   -1.52072297403739     -0.10752193506757     -1.47608965134403
  C   -2.04234509085561      0.44267819511710     -2.36916653034113
  H   1.93416083634153      1.34177406960119     -0.00099113314450
  H   0.41699762635792      1.70892956212802     -0.82056113369214
  H   0.45010061403410      1.46691212360188      0.92754724344467
  H   1.23178877664609     -1.92891953388785     -1.71781052302567
  H   2.44620755004396     -0.60139794182873     -1.51704926262866
  H   2.40205430137188     -0.94318869796062      1.01376388697291
  H   1.18463901009392     -2.27491993481537      0.80799898550530
  H   -0.88384680173924     -1.87688989776386     -0.50004565305350
  H   -1.59985585017645      0.37438723760429      1.08276591338901
  H   -2.52112867630459      0.94152302083696     -3.18499157211226
  C   7.21468497607550      1.45931482151402      0.47508464811742
  C   6.54664980731805      0.10892846942726      0.19932617216494
  C   7.28548985967526     -0.91864632162117     -0.64854315954344
  C   7.11616586635442     -1.14422089922521      0.85158834153591
  C   5.00805040735601      0.15451508590646      0.03278564445075
  O   4.33377756954221      0.53644674352056      1.22904195730945
  C   4.63280029726664      1.04874650928064     -1.11536866873807
  C   4.33383508379486      1.75715583539147     -1.99910806949242
  H   8.29119054863722      1.33972569720039      0.53031853649119
  H   6.98838313897306      2.16539182982779     -0.31902055325360
  H   6.87805694635192      1.87743958160138      1.41887746000456
  H   6.70961149896848     -1.52970550567342     -1.32718516124142
  H   8.26446776252907     -0.65623963783458     -1.01960772650767
  H   7.98280671916986     -1.03380018885466      1.48552535067514
  H   6.42473245358700     -1.90525893603168      1.18136253105878
  H   4.65736871896308     -0.85942285028896     -0.19750610120590
  H   4.59572182702591      1.44492868008661      1.47068688954376
  H   4.05759607627869      2.40203888231245     -2.80734317522161
