38
Coordinates from ORCA-job dimer_006920/dimer_006920
  C   0.72437460968574      0.15355817567241      1.78506836432105
  C   2.03132881189214      0.28240455502751      0.98454155492288
  C   2.04219932463738     -0.51878458073255     -0.32743094238410
  C   2.81425806126305      1.58753572968136      1.05723907037605
  N   3.32531190344984      0.35439797365315      1.66910876811228
  C   3.43217111086106      0.25636762647364      3.12719275447003
  C   4.85979977715374      0.73868613731391      3.54247328741388
  O   5.09260335529818      1.28258041614030      4.59639008704389
  H   0.71142733875393      0.80594457582689      2.65007774919514
  H   -0.11640056264782      0.41714098394390      1.15039037002144
  H   0.58774315400783     -0.87097013696894      2.11954666748920
  H   1.25876341507289     -0.16669119723573     -0.99184331668534
  H   3.00026818445899     -0.40980123960176     -0.82437101298637
  H   1.87466390476199     -1.57253587750330     -0.12630132601850
  H   3.34818398146314      1.94880867308166      0.18597350485858
  H   2.42797497689399      2.37012988795115      1.70081333110305
  H   2.68514302679132      0.82665163952273      3.68411548184907
  H   3.33060147502179     -0.79513329298746      3.41280522071795
  H   5.64609554010295      0.53562082815348      2.78335960534969
  C   8.69035906954785      0.36537715878857     -0.66985534297224
  C   7.49237112216520      0.02817173316461      0.23426100677398
  C   6.12423980307325      0.25961043185288     -0.42751458597622
  C   7.63844301689135     -1.09058999737496      1.25831794699652
  N   7.54018199154567      0.31545497971461      1.67232308606502
  C   8.69644511148032      0.97935468467775      2.28410469365470
  C   8.60320629354014      0.80470004917364      3.83508625189470
  O   9.53727852634866      0.44462737442416      4.51022525044148
  H   9.63500836366565      0.09415267317045     -0.21379598083913
  H   8.59910552867387     -0.17698760364953     -1.60619151099743
  H   8.70410669983278      1.42808191538861     -0.89466646395969
  H   6.01021026194888     -0.39278101774598     -1.28759833293085
  H   5.32021143146963      0.06128192629360      0.27804980843598
  H   6.04221424263627      1.28804194559855     -0.76455945064057
  H   6.78864409429166     -1.72112635956397      1.49415350303605
  H   8.59872557856921     -1.58973862978806      1.32706343117225
  H   9.66663079191119      0.60562432816144      1.94978550533066
  H   8.64386157021466      2.04746260058783      2.05359116217555
  H   7.60697790127112      1.03640715471343      4.26304875116926
