36
Coordinates from ORCA-job dimer_006142/dimer_006142
  C   1.94126546748029      0.71643246593234      1.81612436744508
  C   1.77140191359725     -0.16293380792314      0.54740092302731
  C   1.31731038988664     -1.59308844750199      0.92245828546523
  C   0.93101893583126      0.55134171980738     -0.57320621814905
  C   2.29860263748913      0.81768204760920     -1.29959997647006
  N   2.93601371830228     -0.12621665136125     -0.36862844961471
  C   2.37278615262234      0.42462194052182     -2.74279627505840
  N   2.42810520324018      0.12001010220651     -3.83425876057684
  H   2.26927045070165      1.71515213289515      1.55133424595280
  H   0.99899482072396      0.79209988129217      2.34804926754799
  H   2.67401314214912      0.27091790170295      2.48149971786332
  H   0.35957041819248     -1.56400862142416      1.43130885036946
  H   1.22412972573986     -2.20032466881649      0.02898897940625
  H   2.04647562741577     -2.05370423692793      1.58281713571336
  H   0.28418849315880     -0.12189689915665     -1.12394935305688
  H   0.37721302324289      1.43455219924578     -0.27731659745314
  H   2.62666297562743      1.85915018271296     -1.21682413433450
  H   3.87257333744223      0.07448240410617     -0.02634931738031
  C   8.00673973143651      0.61636789658101     -1.13762668514438
  C   6.66526566926537     -0.11916621873197     -0.87387065329223
  C   5.83205848741751     -0.23992651440983     -2.17073748725796
  C   6.85458422228094     -1.44472771469411     -0.05161283520841
  C   6.37211823677067     -0.63084334244602      1.20277439824575
  N   5.91298452517469      0.43556630648861      0.28793005829563
  C   5.29284179238010     -1.24835416177356      2.03159108746680
  N   4.46649077809051     -1.71362140951815      2.65431371851224
  H   8.59258013907200      0.69588549319333     -0.22835705808643
  H   8.58909629263469      0.07465932453305     -1.87589995283109
  H   7.81841148198287      1.61474352960997     -1.51970674061410
  H   6.39858118429788     -0.77269551239383     -2.92778101027131
  H   4.90877075048026     -0.77847262219275     -1.98218931008301
  H   5.58641687335673      0.74381356010421     -2.55728327794985
  H   6.15907225768086     -2.22737740825739     -0.33640008914612
  H   7.86072168199060     -1.84460941170915      0.00546297646303
  H   7.19666408499155     -0.35086511509792      1.86713601625439
  H   6.07077737785137      1.39938367579371      0.56242415395021
