38
Coordinates from ORCA-job dimer_007795/dimer_007795
  C   0.32876199434285      1.07004493920074     -0.55479443540704
  C   0.91912825289276     -0.34232187444118     -0.31538529173055
  C   2.38141444359975     -0.43474204944175     -0.84995362360495
  N   2.99117940304946     -1.75176697761614     -0.62330780079867
  C   3.01612763415645     -2.15981025886963      0.78744241172409
  C   1.59995056225296     -2.06128754893752      1.44729381411097
  O   1.10117175882772     -2.95968617423619      2.07745252938564
  C   0.89777751613988     -0.70138222841195      1.19726860051365
  H   0.92051067426005      1.82030384878226     -0.04133694520339
  H   0.32160646294229      1.30660848245872     -1.61386249907594
  H   -0.68948823972335      1.12668513786154     -0.18407648455923
  H   0.31532433479454     -1.06932759613793     -0.84944470426907
  H   2.39858567040372     -0.21813982094480     -1.91731591996484
  H   2.98955061130247      0.32378018920243     -0.35868716956351
  H   2.56742636352714     -2.46412886579331     -1.20605917613884
  H   3.39566239890973     -3.17818547090374      0.88268433411297
  H   3.69213456160238     -1.50435538729199      1.34083711616629
  H   1.43103085795728      0.06470295717317      1.75452784413043
  H   -0.11935578613778     -0.74343315890247      1.57388028456454
  C   6.78301873602865      1.67907530547989      0.37275917859242
  C   6.27966240405653      0.23018983563846      0.15261920435165
  C   6.34693731770510     -0.16919536020694     -1.35626593802908
  N   5.89349512687476     -1.53890588977203     -1.60521676579838
  C   6.65104882785712     -2.54740096176895     -0.86133847076850
  C   6.68233010572434     -2.23522401825149      0.67245885407771
  O   6.37928888468200     -3.03650829184882      1.52183539445865
  C   7.11310701095494     -0.77966281762472      0.99124190803573
  H   7.81377203002541      1.77407249877622      0.04879391351819
  H   6.18221584166372      2.38186015875426     -0.19489458455431
  H   6.73005593242348      1.95110976996046      1.42175463290915
  H   5.24554834231747      0.16512963229822      0.47110186169558
  H   5.73394759515101      0.51613804197742     -1.93910007500722
  H   7.37312451637262     -0.05986229643022     -1.70447939617528
  H   4.89356391538008     -1.63676646532095     -1.44169467789789
  H   6.21907693937405     -3.53522051420164     -1.01849638517928
  H   7.68149387751084     -2.57068905994780     -1.22281287762233
  H   8.16418973947141     -0.67302662990743      0.73580282106704
  H   7.00557238132504     -0.59082508035406      2.05442251793362
