40
Coordinates from ORCA-job dimer_007488/dimer_007488
  C   1.21462125578399      1.05332095456541      2.13874087978662
  C   0.68636801401493      0.85795963313240      0.69539238850852
  C   -0.68747094372809      0.13542669438263      0.64935000931860
  C   -0.60155118989822     -1.30913488027630      1.23853876194401
  O   -1.81531873429212     -2.03861365424890      1.06450263744719
  C   0.77040553212203      2.13497433176883     -0.21389476120791
  C   1.77785154580178      1.29527398395272     -1.06742426879469
  O   1.65478869394469      0.17899257676713     -0.15281038802853
  H   2.14842657104485      1.61021014415750      2.12215246575775
  H   0.48678602078853      1.60338753804510      2.72649964008826
  H   1.39226531756193      0.09508069494370      2.61338512273174
  H   -1.42360314051890      0.71563302203581      1.19725497729395
  H   -1.01294569688524      0.07924448849217     -0.38437913258908
  H   0.25468780720804     -1.82569365576659      0.78537363180999
  H   -0.42309774972959     -1.25991890348743      2.31555217070451
  H   -1.99365438235641     -2.13913903828617      0.11083597161640
  H   -0.15105794845854      2.41096736427920     -0.71306282192673
  H   1.19871775827763      3.00595777108986      0.26958348635533
  H   1.44425081196720      1.04897974087377     -2.08110014291399
  H   2.79599766141076      1.69341765152052     -1.11655027096673
  C   5.18872269777871     -0.62172210462282     -1.23824233423450
  C   5.52716225796116     -0.91336517854799      0.24574997559153
  C   4.73197384129912     -0.00793244892736      1.22263963968610
  C   5.12767418663959      1.49501833251004      1.07081600219783
  O   4.45694166689589      2.32842376242552      2.01772430246569
  C   5.52143229189252     -2.43606834669027      0.62802537390399
  C   7.05559044835596     -2.24049578220550      0.87231707555946
  O   6.95790046716480     -0.84449767891037      0.50049874462385
  H   5.72810096983276     -1.30473478204326     -1.88541669926266
  H   4.12205026643402     -0.74675056083212     -1.40128557084786
  H   5.46872719729158      0.39144953939373     -1.50349232157933
  H   3.66814163083293     -0.13014166927869      1.03260528324864
  H   4.93599314663711     -0.32731142184931      2.23894916056903
  H   6.21889884904390      1.58849613369376      1.14695050862556
  H   4.83880145184405      1.85777396578696      0.08249747502699
  H   4.74702124567478      2.08530044156743      2.91659140623368
  H   4.93817747662604     -2.68693621269897      1.50622461782573
  H   5.26338194780395     -3.10964067650522     -0.18074156573303
  H   7.38940224344656     -2.38138115123082      1.90576003343672
  H   7.71363666748447     -2.81050353897610      0.20798935572723
