38
Coordinates from ORCA-job dimer_010772/dimer_010772
  C   1.15769092526845      1.73202681926686      0.08753984945039
  C   1.00185244855423      0.22261800771097     -0.21703620535879
  C   1.58378305780250     -0.31401040022235     -1.58189880762214
  C   2.25728145953505      0.68790268692366     -2.54110869265086
  C   2.55131393947676     -1.16859086775605     -0.68201817211718
  O   3.44493243401549     -1.94813135788477     -0.85206024319185
  N   1.96396297691064     -0.64907720581168      0.46162026297410
  C   2.22323834797450     -0.87088819828890      1.86803936682315
  H   2.19042491279307      2.04477441565354     -0.01331028689806
  H   0.54800756103128      2.31750172903867     -0.59360678828733
  H   0.83347850764802      1.94253404204289      1.10224370547752
  H   -0.03441373056432     -0.07803984609695     -0.05292349955517
  H   0.87429626515566     -0.93574510748398     -2.12117898736412
  H   3.01428042059556      1.27545447496808     -2.03397213050374
  H   2.73349654714162      0.15022766357401     -3.35669221468056
  H   1.52029242292182      1.36571952952169     -2.96181586513099
  H   2.99483783090864     -1.63830344472076      1.95893863267766
  H   2.57917556548576      0.03750041652528      2.36206562897189
  H   1.32764156759216     -1.22017152631211      2.38914730824915
  C   5.29441229164213      0.90799727049759      0.68216817113037
  C   5.99828029495028     -0.46971617655330      0.64471635142301
  C   6.52338574763311     -0.98297025002977     -0.75019914610147
  C   6.26413519371895     -0.12562543013051     -2.00381144618670
  C   7.95517876604408     -0.86768696875028     -0.10716449172543
  O   9.09020282808211     -1.03901217427060     -0.45091243188629
  N   7.39288338321394     -0.45488289563998      1.09324647316077
  C   7.98725042653224     -0.07502435684964      2.35623042185790
  H   5.91610025301181      1.67059381967130      0.22750081593638
  H   4.35176239686703      0.86050073391007      0.14959102101753
  H   5.09263082674003      1.19777668179220      1.70840918303429
  H   5.38636898692335     -1.21102352657957      1.16001983248066
  H   6.23776003879732     -2.01543951517693     -0.93760631795884
  H   6.56901449604020      0.90365746763480     -1.85361009992342
  H   6.82664057268960     -0.52766790687470     -2.84186066463628
  H   5.20887741006348     -0.14740756855219     -2.25766731179218
  H   9.07072331886615     -0.18573532565994      2.27229633346323
  H   7.76614729607634      0.96534246152858      2.61001800567404
  H   7.63809459986018     -0.71146710161524      3.17389625676937
