36
Coordinates from ORCA-job dimer_004777/dimer_004777
  C   0.37913469969445     -0.72949139694541     -1.76563171089509
  C   1.45040974378811     -1.22240108989820     -0.76098040592650
  C   2.84649236678590     -0.90119844793218     -1.27050100789204
  N   3.14364404657174     -0.30003254212060     -2.37970880810239
  C   4.53452150968741     -0.22156720672076     -2.43342750411039
  C   5.26212155696364      0.42290178797857     -3.59688497580113
  C   5.06300238291812     -0.79301105309361     -1.32414458474564
  N   3.98886181344825     -1.23134401656236     -0.57335721553897
  H   0.46591204417001      0.34263355212045     -1.90887211876540
  H   0.52267075200703     -1.20671751821409     -2.72956169852063
  H   -0.61747872278725     -0.95847434614813     -1.40232502459823
  H   1.29917959969698     -0.75103300963792      0.20815822654844
  H   1.35599185336317     -2.29603136964150     -0.61035520908100
  H   4.95135269696662      1.45750388709479     -3.71900504074468
  H   6.33395378190841      0.39744275510676     -3.42922720924748
  H   5.04415845013201     -0.09962045383014     -4.52511984787637
  H   6.09577257412288     -0.92040505153566     -1.02259693822229
  H   4.03628180578547     -1.70587218366069      0.31765438247544
  C   8.07880131886388      1.18216432394127      0.53435248827203
  C   9.14504155092853      1.41018096457827     -0.56646592854337
  C   9.03103301667769      0.34611863859164     -1.64670125291670
  N   8.27112449679628     -0.70431360286937     -1.61458314872204
  C   8.47561882090415     -1.39083424991853     -2.80858192546172
  C   7.72946952000350     -2.66952149525127     -3.13514706502748
  C   9.38628204836706     -0.72243494487613     -3.55736835406496
  N   9.74797443769228      0.39070687019624     -2.82028430069104
  H   7.08167292565088      1.24106871766780      0.10934247048241
  H   8.20043535872894      0.19748716085255      0.97385740012013
  H   8.17331798708747      1.93123240415072      1.31404807017995
  H   9.01817749519806      2.39418717746342     -1.01335337057129
  H   10.14316241029853      1.38284813922805     -0.13226285148327
  H   6.65775727951742     -2.48355939439560     -3.17953522669573
  H   8.05268297742273     -3.06464313423112     -4.09259896136796
  H   7.90594627813996     -3.42253806613937     -2.37081065337073
  H   9.80020121499115     -0.93113826747561     -4.53078673906681
  H   10.41056304150723      1.10351850912784     -3.09539668102672
