36
Coordinates from ORCA-job dimer_009506/dimer_009506
  C   1.60770186891505      1.01469032341349      0.29586522654475
  C   0.75928943671953     -0.27387477820514      0.34003700389385
  C   1.32739839253559     -1.44631863696353     -0.52730421506255
  C   1.90906093175832     -2.11564399642940      0.75876015606618
  C   1.00275787470248     -1.15486995741148      1.62996067854008
  O   1.53092277198046     -0.58359299956531      2.79417965968713
  C   -0.30632477653717     -1.88976028938524      2.05527873851365
  O   -1.23655379047657     -2.08254332768719      1.31203972042570
  H   2.65875816664479      0.79558643663912      0.44678460690131
  H   1.49558196913378      1.50054409259774     -0.66803724835814
  H   1.28766996003299      1.70692830107120      1.06850247584831
  H   -0.28553038669919     -0.04477606182706      0.16396075774023
  H   0.54206237802268     -2.03875101227729     -0.98352694722885
  H   2.04761142174103     -1.16828213268753     -1.28650812278162
  H   1.75173097956067     -3.18094842010222      0.88036652262244
  H   2.96118010384054     -1.89519792794294      0.90230298005032
  H   2.44724391671549     -0.27785255982286      2.64355563532916
  H   -0.29553045946604     -2.22998752834628      3.10910190168254
  C   6.97609201461067      1.74268013770134     -0.86799826466291
  C   5.92555894792506      0.91950693072033     -0.09075118208627
  C   5.53014157218322     -0.42213870897617     -0.79330081065940
  C   6.48299896389004     -1.20337113961434      0.16792968231237
  C   6.53865926587974      0.07530355452682      1.09792353683964
  O   7.75782874802709      0.45143540710310      1.68334416119156
  C   5.52422790309592     -0.06354525563612      2.27223636949002
  O   4.32850607513550     -0.04857632219095      2.11115314398434
  H   7.79364272972770      1.11679631778843     -1.20901116187775
  H   6.51632159900654      2.19300656838032     -1.74258983867697
  H   7.37944175374911      2.53828016821985     -0.24817968265270
  H   5.09421097354742      1.55151080684502      0.20099128643868
  H   4.48715340919672     -0.67762000457175     -0.64320976300877
  H   5.76203246528481     -0.48838013971076     -1.84951881462698
  H   6.10469262830172     -2.11627493628783      0.61406651392573
  H   7.45006724830910     -1.40709860488366     -0.28031019657014
  H   8.45331189422543      0.52587913629537      1.00511971268868
  H   6.00097604877837     -0.18935744077693      3.26580777753615
