40
Coordinates from ORCA-job dimer_009505/dimer_009505
  C   0.49357493741319      0.49396048023863     -0.93193808490010
  C   0.93469611343614     -0.63819704742183      0.01547797065386
  C   2.44469476229191     -1.04676700404118      0.02318704569901
  C   2.40175920099464     -1.10336438795301      1.58474995905783
  C   1.04103421402171     -0.34222163555538      1.56143441416819
  C   1.16050658834694      1.15545817060004      1.91742836974585
  C   -0.08584097199398     -0.99478270198667      2.39067461377696
  O   0.04672708850187     -2.01766616471629      3.01778921794034
  H   1.13009546104081      1.36429702547472     -0.82684014604654
  H   0.55137997535098      0.15630978845358     -1.96242229116348
  H   -0.53062650946597      0.79131683194910     -0.73029561048408
  H   0.31123440454662     -1.51007160146734     -0.14955433910344
  H   2.69554526837606     -1.96728087085864     -0.49114691651990
  H   3.08232681954126     -0.25359907407685     -0.34695986655285
  H   2.28762084597449     -2.11108603623798      1.97045776929593
  H   3.20674729344327     -0.61074048081179      2.11443624200669
  H   1.94951328926589      1.62033471161805      1.33802383363902
  H   0.23204450131561      1.67815618917293      1.71310404983395
  H   1.39793844453414      1.27411037016377      2.97005159154724
  H   -1.05155134482932     -0.45537468011487      2.35546298167592
  C   5.29787114879473      1.67354175340352      0.80135955362117
  C   6.01780250095980      0.62370571135194     -0.06685772536168
  C   7.45060127671389      0.96372715405585     -0.59423539513370
  C   7.90954042040254     -0.48231480920593     -0.21986799794280
  C   6.61172995963108     -0.66341925614387      0.62810113049836
  C   6.83620717985781     -0.52050697207857      2.14805299745854
  C   5.81484719000440     -1.95276178601606      0.32618878185470
  O   6.04583826278657     -2.67536584819754     -0.61306756912817
  H   5.94162596090693      2.03264254620474      1.59531806846276
  H   5.00969531027055      2.52394462249095      0.19095336780708
  H   4.40209817333960      1.25848628227899      1.25032636643397
  H   5.37652736060213      0.33132483161778     -0.89059689552081
  H   7.52325292707026      1.24098202460247     -1.63911369083666
  H   7.93790429164645      1.72375781622868      0.00480908797511
  H   7.92478597384687     -1.15473742172795     -1.07135458693379
  H   8.84262823687826     -0.57132611903143      0.32243444680146
  H   7.41534490321640      0.36960564255808      2.36424604187178
  H   5.89050841311378     -0.45185760416809      2.67502543049282
  H   7.38045125368199     -1.37858002024140      2.52990046889989
  H   4.99105000716928     -2.16422510441113      1.03288385440950
