36
Coordinates from ORCA-job dimer_005604/dimer_005604
  C   2.07964930260622      1.32436003117441      0.68327889145572
  C   1.36268220177894      0.64345076884827     -0.51981168800907
  C   2.33186035020738      0.30054346962138     -1.63727601074384
  N   2.56979054654792      1.02917188470922     -2.68813459668787
  C   3.53427971795158      0.35403640237193     -3.42343719164615
  C   3.87044737335338     -0.79552388839966     -2.78328972238463
  N   3.11010947967741     -0.83501691388850     -1.63620255414243
  C   3.10326314346236     -1.92210849574228     -0.66048961861215
  H   2.84684075664662      0.67933120173031      1.09689831871819
  H   2.54987288409491      2.24700352161089      0.35849123691365
  H   1.36584175759145      1.55722365734514      1.46738950126087
  H   0.84287061846937     -0.25100033225884     -0.18833225184961
  H   0.61903990663690      1.32321927103149     -0.92730340072006
  H   3.91802804874745      0.73794419930424     -4.35357913564121
  H   4.57494950706507     -1.57782924791579     -3.01928400346744
  H   2.83958330962022     -1.53569452870844      0.32297169360816
  H   2.38054938231963     -2.69377679917336     -0.93944110485039
  H   4.10854009777652     -2.35730673391152     -0.61543708022983
  C   5.74332767052836      1.45439462943441     -0.49699333022257
  C   6.14016704368934      0.15533924040538      0.26333471727828
  C   6.83693047986547     -0.86063876898366     -0.62563849411360
  N   6.34777042693651     -2.00523841775920     -1.00340866215120
  C   7.30724489978220     -2.60247762586998     -1.80802581563629
  C   8.38801511550184     -1.78832823424356     -1.90143168711658
  N   8.09852654426898     -0.67252112650452     -1.14449214267202
  C   8.97222099024578      0.48153062650103     -0.95860778838209
  H   6.61847455131230      1.97599502712839     -0.86577431231141
  H   5.10377711629261      1.21947129418735     -1.34211907821800
  H   5.20403028594835      2.12229856261056      0.16683647536597
  H   6.77512603625543      0.40091978446462      1.11152599857429
  H   5.24809985429208     -0.32331029546218      0.65560327430220
  H   7.15830454019931     -3.57035252835170     -2.25806898240918
  H   9.32652183036218     -1.89428440366053     -2.42196958422244
  H   8.80852419122559      1.23331791661543     -1.73686032289472
  H   8.78445152785367      0.93656665470103      0.01492266872215
  H   10.01433951088553      0.15902419703823     -0.99665621686449
