44
Coordinates from ORCA-job dimer_006227/dimer_006227
  C   0.38924200609357      1.32373645268288     -0.18590563221958
  C   0.75350162345703     -0.02861965677927      0.43923746826750
  C   -0.46756831129771     -0.78657588618723      0.97848511047886
  C   1.89982632334116     -0.83679601138614     -0.19590037518449
  O   2.60765049940812     -0.30818279180241     -1.28402530087887
  C   2.09809384497716     -0.16312441157618      1.16249601644574
  C   3.02593122186999      1.05520282414945      1.23527978271163
  C   2.18989144632905     -1.05125593459449      2.41160547653966
  H   1.22018020755839      1.74337506956724     -0.73935898753563
  H   -0.44651848921032      1.20497333229816     -0.86767142433359
  H   0.09657346143343      2.02966420946736      0.58511979871844
  H   -1.23937481188889     -0.83767665499994      0.21719397006105
  H   -0.21936388093088     -1.79868186773245      1.27162064938393
  H   -0.87967596653253     -0.27309150389234      1.84205092337999
  H   1.79329747441821     -1.91983297967453     -0.18927605864502
  H   2.08947450315951     -0.43302622845605     -2.10127093012393
  H   3.07881236238331      1.57526538177807      0.28757543138707
  H   2.68012049979364      1.74643423032354      1.99746165306810
  H   4.02895273903404      0.73365140931859      1.49417845006313
  H   3.22803351130342     -1.28893488891138      2.62045292598380
  H   1.78198696005450     -0.53074620655896      3.27270479736110
  H   1.65198387034139     -1.98240567819793      2.28938982215338
  C   7.02876509227940      1.53600837708091      0.82581045465402
  C   6.81098535904467      0.18056698085723      0.14248288415430
  C   6.11749545245068      0.29497128328510     -1.22349837431366
  C   7.88506052914012     -0.90671644466636      0.33002604930360
  O   8.99501828990604     -0.66116583272060      1.15059854039123
  C   6.52289377644184     -1.04718629710244      1.01265291414479
  C   6.46691311563361     -0.88562257502112      2.53707595953950
  C   5.54886791429707     -2.10876273508995      0.48139806809234
  H   7.63957079814127      1.44215315777820      1.71500372160667
  H   7.52437732451763      2.21966155933876      0.14434776162458
  H   6.07618171630098      1.97466731279761      1.10523662870134
  H   6.55738580369187      1.10337524283629     -1.79748429460895
  H   6.21660792634359     -0.61627867113106     -1.79923599373319
  H   5.05605468023805      0.49718311169713     -1.09912805547347
  H   8.06944488671275     -1.55886224170523     -0.52118914018904
  H   9.63488200973928     -0.10227970362915      0.67070226079278
  H   7.30819089827895     -0.31147072611891      2.90506657793618
  H   5.54761308228755     -0.39384581123833      2.83732107134712
  H   6.49988378198610     -1.86211739780177      3.00878165064016
  H   5.63943797259817     -3.01972199119973      1.06363903345875
  H   4.52622799093689     -1.75179039930581      0.55511338835367
  H   5.74471557093706     -2.35083861077674     -0.55509459350511
