38
Coordinates from ORCA-job dimer_004070/dimer_004070
  C   2.63189877806874      1.48785976139973      1.38940516365704
  C   3.64692523561258      0.38287209853994      1.08751120809433
  C   3.82688404194652     -0.72604276745505      2.13175918094557
  C   4.47939375024946     -0.18467449745601      3.41308430777528
  C   3.60745698631383      0.39142402926726      4.52298187566277
  C   4.31074682671077     -0.94874759799109      4.72228733403203
  N   4.38474015321629      0.31382642354038      0.05942408818482
  O   4.24235033109281      1.32067332062497     -0.85415824055540
  H   2.50052572430871      2.13241625709804      0.52568005461312
  H   1.67412778801376      1.05161458434785      1.65800728198050
  H   2.97341036257256      2.08865702371787      2.22862066799363
  H   2.86245190745473     -1.16153549152026      2.37670418081457
  H   4.44894199579693     -1.50712096630066      1.70280545224602
  H   5.43378416558194      0.29334847720222      3.25360554579690
  H   3.97106852574343      1.24641277260033      5.07248651881690
  H   2.53799999222718      0.38543964944863      4.37997691849648
  H   3.70884848197536     -1.84450762019843      4.71012977673605
  H   5.14682416910533     -0.99132311315923      5.40381300291361
  H   4.97685341784234      1.17854601295720     -1.50134233208093
  C   7.34027923171170      1.49113207640792      0.35400796194426
  C   7.47067074592428      0.06034251392249     -0.17459218971909
  C   7.94690946960581     -1.01584748476613      0.81001263807675
  C   9.25341401272146     -0.63457354358972      1.51764676379948
  C   9.20133782056073      0.14840030736663      2.82538662961555
  C   9.60741403291144     -1.32256687478940      2.83204232377160
  N   7.20042997458887     -0.33769063349008     -1.34945035467784
  O   6.69603310501514      0.63152706309541     -2.19469333206648
  H   6.98000632670124      2.16672230227601     -0.41449964518714
  H   6.65062400688182      1.51158511138237      1.19364331647692
  H   8.30856993169160      1.83849504791992      0.70427991436420
  H   7.16810278486496     -1.16786098664854      1.55459358035943
  H   8.06976239188316     -1.94910135777581      0.26625522650909
  H   10.07393221701344     -0.41256698608141      0.85197789252385
  H   9.96276567233694      0.89032092636239      3.01219922131636
  H   8.23136558438583      0.40725813211927      3.22039153097599
  H   8.90674808895224     -2.04073835801121      3.23008923431609
  H   10.64178745063570     -1.56708177319286      3.02083517420811
  H   6.64118577777956      0.19851629682906     -3.07561577073062
