42
Coordinates from ORCA-job dimer_002573/dimer_002573
  C   2.30623179302145      1.22722785553734     -0.54209622106451
  C   1.12908346873624      0.53099293890361      0.18973927768834
  C   1.60753642460064     -0.50611259532256      1.21463851655501
  C   2.50868640751076      0.01920359579671      2.33989294400723
  C   1.83421581393550      1.15181231815450      3.15726440944107
  C   0.64488018022600     -1.63511696783825      1.56091433763321
  C   1.88024301647349     -1.91644230776683      0.70874988574204
  H   2.93498276562701      0.49058885375021     -1.03002911835660
  H   1.93438273295441      1.91296535134076     -1.29624156812738
  H   2.91754571779036      1.78943052128742      0.15433851863165
  H   0.51528789296405      1.27520376841459      0.68639332213104
  H   0.49702250201723      0.03515120207943     -0.53871204166453
  H   2.75366166740116     -0.80377205049686      3.00163154723790
  H   3.44434591257047      0.37471548672887      1.92231070509434
  H   1.67941069801386      2.03258318912469      2.54492791249779
  H   0.87056381972970      0.82442917948863      3.53248205870256
  H   2.45440334499255      1.43274362981460      4.00203784048019
  H   0.63305143311534     -2.00237433812148      2.57481430346778
  H   -0.31978653327339     -1.65115526457188      1.07919131171636
  H   1.74085559277681     -2.11941416940745     -0.34114609652866
  H   2.68925006785561     -2.47009030936570      1.15719748861043
  C   6.30012533201753     -1.34637356032244     -1.26463215109692
  C   5.53755921166527     -1.33512684262175      0.08595722629084
  C   6.43713153696280     -0.93297609718818      1.26221155829714
  C   7.13155613917014      0.43071184462144      1.14824845296393
  C   6.12166773171643      1.59962733740887      1.00814363804886
  C   6.00725527950431     -1.38636667255390      2.65116611062942
  C   7.20282382171635     -2.04559598576483      1.96710671459862
  H   7.18039528644540     -1.97648487488890     -1.19625320924208
  H   5.66501811494851     -1.72836505277158     -2.05706076546004
  H   6.61750113623034     -0.34710881038947     -1.53921228842401
  H   4.69228336743245     -0.65835215898358      0.02508654851640
  H   5.13480281853173     -2.32296924053771      0.27864928114452
  H   7.74059836935700      0.58690010038267      2.03180877338403
  H   7.80469698267682      0.42479648802694      0.29731911760472
  H   5.54061795084376      1.50280472073050      0.09833438374206
  H   5.43825283429752      1.61060782699442      1.85008074896283
  H   6.64190312350053      2.55131487227748      0.97777648518914
  H   6.19584389911878     -0.72887508897577      3.48486042758466
  H   5.09711186608287     -1.95708236919706      2.74137891922668
  H   7.08729362269882     -3.05415669477766      1.60318627424068
  H   8.18863556804301     -1.82769985399980      2.34603968690320
