38
Coordinates from ORCA-job dimer_006918/dimer_006918
  C   0.44392411470340      1.14669678960639      1.55783399549246
  C   1.05285414120501      0.63093531473688      0.25088037256718
  C   0.02868988153408      0.16029951510418     -0.78811043723091
  C   2.33991111554582      1.28205125175989     -0.24477013844103
  C   2.37820076936526     -0.13553405019378      0.32474885987057
  N   3.00895115332816     -0.34529408624193      1.59223829260265
  C   2.50914276359986     -1.29006406718989      2.47144271719673
  O   1.54687309635288     -1.99378042826206      2.24887757008964
  H   1.21931085696144      1.44500147646074      2.25389769873449
  H   -0.19406781664638      2.00301518842765      1.36268252958221
  H   -0.15542200395232      0.36890575863572      2.02220800363744
  H   -0.63486494619514      0.97386185982943     -1.06494523746015
  H   0.52284134661716     -0.19929217156199     -1.68369427760675
  H   -0.57059681791193     -0.64780518809405     -0.37829934784642
  H   2.48628461153074      1.40694428381795     -1.30615373806026
  H   2.77009338941466      2.06722335769289      0.35779032213165
  H   2.49277027877339     -0.94189942112064     -0.39156053982848
  H   3.82485741716613      0.19965508720391      1.84889196600805
  H   3.09666738946507     -1.33435748245652      3.41127946627379
  C   6.15183313165638      0.22009827964310     -0.71167115447999
  C   6.63747799010075     -0.91146022390008      0.19957876945507
  C   5.74070575930850     -2.15581342380228      0.20547093181693
  C   8.13956437225531     -1.11713000280511      0.35005097361458
  C   7.33317816004397     -0.54586842024673      1.51725123798994
  N   7.53364924980970      0.83297086269324      1.86205896164623
  C   6.48957599372249      1.62831733970940      2.30042818351596
  O   5.33684517491654      1.26238516540148      2.38514273580448
  H   6.80911750695203      1.07941710900401     -0.65133576440739
  H   6.12538805878042     -0.12111733300975     -1.74218108104704
  H   5.14911466803252      0.52777368433813     -0.42987988828424
  H   5.67859130156030     -2.57727130574491     -0.79324478248057
  H   6.13459335960334     -2.91415922217956      0.87290655765802
  H   4.73794602558982     -1.89474728317476      0.53105232018235
  H   8.52210636218123     -2.12201633679390      0.44367942222952
  H   8.79606106787626     -0.44103265823426     -0.17563281055414
  H   7.14665707713474     -1.20962410377182      2.35503251985261
  H   8.47189086558351      1.20008858228553      1.89491388003219
  H   6.82239155703371      2.65316982843353      2.56829407374243
