38
Coordinates from ORCA-job dimer_002365/dimer_002365
  C   1.10046040644989      0.67921561277530      2.09669737155486
  C   1.08011182237245     -0.60090150294130      1.21954900786675
  C   0.92093599854404     -1.87490828221915      2.09007514646264
  C   -0.05043806810318     -0.51635406836362      0.18915253077603
  C   0.19753033469341      0.20302480707391     -1.13446106430157
  C   0.04511913575584     -1.32923891576745     -1.09805616502765
  O   1.17461416999906     -2.14655932668476     -1.26432778790336
  H   1.92000880435200      0.63811956202539      2.80601913617726
  H   1.22370370062184      1.56189774012954      1.47895480770673
  H   0.17324757236322      0.77551239303939      2.65041147681208
  H   2.02113714755081     -0.67179424186003      0.68662239344222
  H   0.91614000155483     -2.75862231156097      1.46087078458999
  H   1.74196293450045     -1.95425426269818      2.79458904498795
  H   -0.00828664820425     -1.84298368867593      2.64770055915504
  H   -1.03751516394589     -0.42366069311899      0.61674846298306
  H   -0.59322314440053      0.79110908576316     -1.57480740458292
  H   1.18916522729167      0.59654168705454     -1.29674795871528
  H   -0.88630100244546     -1.73650035004323     -1.49027047998366
  H   1.37335360283420     -2.23206765926310     -2.21594713904830
  C   5.71805634362311      1.00725338362235     -1.72139373133125
  C   5.27506525711763      0.22219087601605     -0.45722187513529
  C   4.53728429121709      1.14595351597743      0.54773862070071
  C   4.37266777706160     -0.95090349987153     -0.85115700278638
  C   5.00410447512507     -2.26984607330740     -1.28954789719219
  C   4.28472848855547     -2.16367579615757      0.06783420787094
  O   5.03991167814826     -2.12017313021202      1.25072314221020
  H   6.38102495991059      1.82204731014484     -1.45139247861455
  H   6.23792975211483      0.35319724707205     -2.41284341115656
  H   4.85575286592904      1.42444505363326     -2.22917676150260
  H   6.15506648903078     -0.18104799587520      0.03305531569291
  H   4.26564769746060      0.58612493979280      1.43652973220475
  H   5.17190965135503      1.97532042236258      0.83996402228494
  H   3.63360016601731      1.54751610560587      0.10379976404776
  H   3.45403891909533     -0.66573499972352     -1.33961081166677
  H   4.53830373016222     -2.84316023651923     -2.07584691155781
  H   6.08161768781295     -2.32449247453239     -1.27538868029443
  H   3.30837251912066     -2.64463437857998      0.14163278122923
  H   5.28847239635767     -3.02765650411281      1.50903462204449
