40
Coordinates from ORCA-job dimer_006484/dimer_006484
  C   3.03126341102228     -4.37574275760716     -0.98270377396885
  C   2.89272039430016     -2.83418641992460     -1.05271141946491
  O   3.15400523257465     -2.12083240628768     -0.11386154211982
  C   2.42584505104766     -2.25599617233849     -2.41736757532975
  C   1.07722005242991     -2.83928273650627     -2.85648871827355
  C   -0.06206867369596     -2.62825968596386     -1.85178375796468
  C   0.74190294732384     -2.78031684394253     -4.34298418212275
  C   1.08149325071411     -4.11612772600889     -3.68943758352145
  H   2.06663028738058     -4.84540258339335     -1.15236538705894
  H   3.71685798459466     -4.71183440830842     -1.75776759125822
  H   3.41175450651050     -4.67027873087635     -0.00979981106920
  H   2.35339109706022     -1.17639734649001     -2.32188265883756
  H   3.18904225415608     -2.48241850385473     -3.15877073966114
  H   -0.20009520487326     -1.56914269184964     -1.65509831385447
  H   -0.99244323956050     -3.02951377222514     -2.23809630608314
  H   0.15595626235380     -3.12070247128242     -0.90901679705120
  H   -0.28291174561736     -2.59528903937154     -4.62517920609205
  H   1.46716577248337     -2.34388610002044     -5.01231273605194
  H   2.03169115712069     -4.56866006972976     -3.92708103660937
  H   0.28374097737522     -4.82612742077506     -3.53633371184919
  C   6.44472115419509     -2.83597344484968     -0.26547315772077
  C   5.93923086730666     -2.28663233432910     -1.62310612709373
  O   5.68091631891101     -3.01059187990267     -2.55463306138956
  C   5.75358256073005     -0.74607597093412     -1.70545691724420
  C   7.04989478130552      0.00633539293124     -1.38112447378179
  C   8.23887556553577     -0.36391042800300     -2.27620114523804
  C   6.92032545554464      1.45578267031010     -0.92511683865163
  C   7.32446404385231      0.37491814041985      0.07247662039174
  H   7.43044717307904     -2.43670150665718     -0.04462771945217
  H   5.76459204888340     -2.52550261134250      0.52496758269131
  H   6.49154876386299     -3.91985665820428     -0.29819784523533
  H   5.41738692785743     -0.49767724172203     -2.70804591110333
  H   4.97229817999962     -0.46228481342679     -1.00368190855789
  H   7.99607380929979     -0.18399855100827     -3.31934468074079
  H   9.11017810414206      0.22844004106295     -2.01970551273244
  H   8.49563925560550     -1.41307298618857     -2.16586039757114
  H   7.67182589398433      2.15888125889899     -1.24917521783094
  H   5.93061370197568      1.87791079508969     -0.84291344812937
  H   6.60377574414099      0.08085964587039      0.81965811985851
  H   8.34643919508691      0.35633499574159      0.41768893477398
