48
Coordinates from ORCA-job dimer_009767/dimer_009767
  C   2.71353992408300     -1.82507907731704      1.37624788018575
  C   2.50127749651816     -0.36098609257314      1.83948072790495
  C   1.01039522237933      0.03727403595545      1.98962855898276
  C   0.27047660904741     -0.05386736382174      0.63133450143482
  C   0.27126610975533     -0.81008235042436      3.05783744901057
  C   -0.95377197350008      0.05137798302716      3.47616301170809
  C   -0.56271088407748      1.53309822869706      3.16027306268359
  C   0.87187768844832      1.47291177605040      2.56442071802790
  H   3.77290065438184     -2.05298380892835      1.32258029963873
  H   2.25415216707278     -2.51876416493898      2.07100089325119
  H   2.28452766511058     -1.99279666806474      0.39577728813399
  H   2.99225075980557     -0.21873562862549      2.79566833873500
  H   2.97704696571824      0.31291953810504      1.13520565365261
  H   0.24139825364253     -1.07533355080375      0.27378829829766
  H   -0.74949397605533      0.29582232181739      0.72800257196455
  H   0.76844431203557      0.55675356858984     -0.11260610267021
  H   -0.02071754466490     -1.78243056957173      2.68318092222749
  H   0.92506004805168     -0.96416249906065      3.90778407448167
  H   -1.83140789235352     -0.23682189236346      2.91024150592750
  H   -1.19123318075151     -0.08456477147956      4.52442871622494
  H   -1.25520889265925      1.96404549388576      2.44739875373556
  H   -0.59348529472795      2.15223083534152      4.04879008478901
  H   1.60441341022273      1.61612236341780      3.34944206277040
  H   1.04127604722715      2.23238478351551      1.81158129311209
  C   1.65497852313623     -2.17586999298539     -2.73847794063279
  C   2.70207630263924     -1.55702661188700     -3.70010473671302
  C   3.91783572920934     -0.92391788313506     -2.97565539569681
  C   3.46880712999350      0.23914863334725     -2.05638061948506
  C   4.73612342462077     -1.96156366467509     -2.16417019146881
  C   6.14160668674392     -1.31890965705537     -1.99661260633077
  C   6.29952171925566     -0.32084606742664     -3.19129287163688
  C   4.97091223464295     -0.40991068015532     -3.99417106449795
  H   0.85888276245408     -2.64991707795047     -3.30289517078783
  H   2.11152034189227     -2.92670014987521     -2.10389276194625
  H   1.21015454337392     -1.41806774329807     -2.10469798684779
  H   3.06493822359856     -2.32687331632875     -4.37189276018545
  H   2.22400524370275     -0.80014803065083     -4.31277081797976
  H   2.84237439281506     -0.12523759817548     -1.25302474884842
  H   4.32594846396331      0.73184660190040     -1.61558133942048
  H   2.90841346063105      0.97388436387447     -2.62239489383872
  H   4.27750426438997     -2.19637384747413     -1.21293823763739
  H   4.81282017601514     -2.88043483090883     -2.73274634359442
  H   6.20672265591608     -0.79182983484606     -1.05240276464577
  H   6.92186914811162     -2.07049809072956     -1.99738683845564
  H   6.45881466812579      0.68624718383404     -2.82546078795320
  H   7.15097109398242     -0.57284593261940     -3.81195874632754
  H   5.07212408693517     -1.12900851798266     -4.79793251881905
  H   4.68660788013949      0.53822357477325     -4.43279516446328
