38
Coordinates from ORCA-job dimer_007778/dimer_007778
  C   1.81064853298954      0.87690663734582      2.18747367592933
  C   1.83729931435546     -0.01692525257012      0.91883496158250
  C   2.61022051605196      0.64715102891524     -0.25529959804042
  C   2.68163444498675     -0.37708795714588     -1.41833445753950
  N   3.10157391349846     -1.70884249996499     -0.95201739991146
  C   2.97804161604925     -2.02302440981704      0.25520832507425
  C   3.42708159672578     -3.39299289981747      0.78523275173960
  O   2.45085592483104     -1.25715155062111      1.26987460939791
  H   2.82179054709992      1.12571236104269      2.49215596449312
  H   1.27205815802610      1.79647495994798      1.98042376447731
  H   1.31713884121024      0.35520241722601      3.00194042031870
  H   0.80812010003674     -0.21324394329364      0.59637117836931
  H   2.10947902481470      1.55846617777853     -0.56275260619550
  H   3.61442739409554      0.89778623757583      0.07478534865879
  H   1.70860875014450     -0.46792829184689     -1.90650623866493
  H   3.38581546458289     -0.04397781016160     -2.18058069022600
  H   3.81509280469753     -3.98700524879798     -0.03630060668659
  H   4.20298668021182     -3.26878978363973      1.53871356269303
  H   2.58386444838152     -3.90781868301319      1.24014113492493
  C   6.42007144081450      0.71439199293639     -1.81518535731758
  C   6.24764508050808     -0.59418344353467     -0.99887328720642
  C   7.54351441600850     -1.45297005899198     -0.97853850300412
  C   7.30501367034584     -2.65532500709040     -0.02610578416714
  N   6.70684349069545     -2.23395282334392      1.25007884902126
  C   6.09962173108760     -1.14138177815247      1.33419287055766
  C   5.48340595360639     -0.66342871971862      2.65694182103664
  O   5.87844317415673     -0.22613663183712      0.33072878209075
  H   7.23081416454385      1.30754469226456     -1.40480800037241
  H   6.64658266182156      0.47910260652101     -2.85047530789438
  H   5.50808748985620      1.30159066369183     -1.77961711387448
  H   5.44030257024961     -1.19553736972282     -1.43425644457891
  H   7.78042361572973     -1.78869088600191     -1.98218641284868
  H   8.37141754918318     -0.85195139089294     -0.61794896812098
  H   6.64472186095037     -3.38617273082123     -0.49920966031488
  H   8.24336720354916     -3.16739342932295      0.19049695306619
  H   5.82965576829386     -1.30005783810189      3.46531116666760
  H   5.77178689760572      0.36636235554264      2.85110166552567
  H   4.39714179520307     -0.71761109456582      2.59693117733976
