42
Coordinates from ORCA-job dimer_002291/dimer_002291
  C   2.97712506189048      1.13458416294139      0.88388967733109
  C   2.50524935789037     -0.33058322938869      0.69055734974707
  C   1.03338491290201     -0.41640452309640      0.20988489389728
  C   0.59702659957759     -1.88249144970021      0.01385008058406
  C   0.48702936380610     -2.76190223878842      1.30528818843987
  C   -0.93616233682126     -3.23095093757098      0.85116533877040
  C   -0.91989317893457     -2.14462798658674     -0.27645939865462
  H   4.00507080014790      1.16746176500363      1.23020563381237
  H   2.91561017850729      1.68187301598530     -0.05067537101619
  H   2.35575035955166      1.64270289050088      1.61354685638636
  H   3.14222979986888     -0.82626608556530     -0.03269838822584
  H   2.60667063268302     -0.87308875094473      1.62428624505009
  H   0.38484320828479      0.06053710124668      0.93616009490830
  H   0.92203231235181      0.12504896511113     -0.72399536487277
  H   1.22949112304203     -2.35363088742955     -0.72904960045599
  H   1.23194384395178     -3.54000441596288      1.41901558958017
  H   0.46435374405902     -2.16785384614333      2.21078963039600
  H   -0.94355845037510     -4.24272252046954      0.46283723877380
  H   -1.72410086757030     -3.13748748344167      1.58892453515712
  H   -1.54131109184303     -1.28796613571064     -0.04509274257882
  H   -1.16113095403000     -2.48913267733282     -1.27474157934479
  C   7.05805338590112      1.96719326240843     -0.30089817461950
  C   7.13834124273133      0.49321015781937      0.17793850247876
  C   6.26121220277381     -0.44234859709452     -0.69480433132645
  C   6.30146940488901     -1.89934694003179     -0.18945732628340
  C   5.67780391660583     -2.16734353752737      1.22230391391648
  C   4.79983806790913     -3.31075404118357      0.61151947006612
  C   5.26801717815241     -2.89285143336156     -0.82301914183836
  H   7.67342010306610      2.61088052220987      0.31904942039607
  H   7.40013967469302      2.05419490750919     -1.32660724356235
  H   6.03532128008154      2.32615987631219     -0.25500864199839
  H   8.16831512810655      0.15335981784705      0.14794223892303
  H   6.81283094107826      0.42760372004556      1.21065502023759
  H   5.23850712872060     -0.08481849623157     -0.68536516870795
  H   6.60273950554883     -0.40557788842352     -1.72414820860822
  H   7.31410492384412     -2.27868079091755     -0.25498869374092
  H   6.37434358383921     -2.46977659374140      1.99464031478530
  H   5.09366358524459     -1.33325917372563      1.58962634278839
  H   5.12918599939427     -4.30292729672792      0.89673300318633
  H   3.73538579857684     -3.23217366781745      0.79749487773543
  H   4.49704469834910     -2.39099645070237     -1.39482503180731
  H   5.68830220455354     -3.68468749732245     -1.43117004070561
