36
Coordinates from ORCA-job dimer_007000/dimer_007000
  C   1.57241783857042      0.68280511075529     -0.82564582914661
  C   1.50706380709545     -0.59004477083283      0.04988651731570
  O   2.82227770562834     -1.17913416725082      0.27756355223967
  C   2.75023278567549     -1.04912478391415      1.66182639554826
  O   3.56930118418423     -1.33805543068703      2.47521707342222
  C   1.31208215421834     -0.42525296529278      1.60734859279863
  C   1.21576081174693      1.01195877832403      2.16273528075161
  C   0.22373016353939     -1.34017591696988      2.21633293051812
  H   2.31676596987299      1.37658595620120     -0.44994885493290
  H   1.83530016626510      0.41490488032624     -1.84583445989201
  H   0.60441412850490      1.17638102448949     -0.83496564589179
  H   0.82619028327027     -1.32438400713672     -0.39086160147551
  H   2.01419937300759      1.64290474302521      1.78863096339803
  H   0.26394985697303      1.45430256265098      1.88422408719265
  H   1.27829868299155      0.98750370371061      3.24699936957849
  H   0.32251059336749     -1.36738488703867      3.29788273352916
  H   -0.76150483602799     -0.95493659851687      1.97008949009240
  H   0.30542975292050     -2.35372295273975      1.83575434747444
  C   5.19873585512775      1.61547973961838      1.22803333850706
  C   5.67862694098425      0.52839085521181      0.23763771664993
  O   6.71534834632162      1.01937495008308     -0.66346628052868
  C   7.66308817761132      0.09001623139125     -0.23516345762830
  O   8.79059516540177     -0.03620358371170     -0.59309695090761
  C   6.66177991845792     -0.58263731321825      0.76989582789711
  C   7.07800598330371     -0.50875392304289      2.25399276706179
  C   6.27010340124714     -2.02440475925355      0.36968816295726
  H   6.04449726853277      2.13049334305187      1.67102403474409
  H   4.58738129759463      2.34815840195182      0.70990283491617
  H   4.61383603078701      1.16259622921638      2.02286865355818
  H   4.83529017340330      0.11330725929981     -0.32235979844038
  H   7.41416768238850      0.48420722045057      2.52962809647573
  H   6.23406581390728     -0.78316822168829      2.88178273579084
  H   7.88761190785381     -1.20809479218367      2.43963449497958
  H   7.11071213621250     -2.69394295166993      0.52510553716588
  H   5.43878937404141     -2.35717602932813      0.98537127363305
  H   5.97238310501895     -2.07406493528212     -0.67265392935232
