42
Coordinates from ORCA-job dimer_006551/dimer_006551
  C   3.91964254504412      0.70536945586894     -0.77954621578151
  C   3.31321768999503     -0.69886296091408     -0.65820685006874
  N   3.98581592852911     -1.68566805584122      0.20940826194065
  C   2.64126165772891     -1.22192387545995      0.60312218678472
  C   2.46530661623107     -0.37425905675798      1.90146691150927
  C   1.41875127722284     -1.09279555448152      2.81559845968854
  C   3.79961025922052     -0.21900491053142      2.68201412338717
  O   2.02085581081713      0.94672361555694      1.59097714600104
  H   4.26899032906139      1.06815656757144      0.17918314524448
  H   4.75449986227513      0.68912203260671     -1.47527553967056
  H   3.17477887782450      1.40244713786287     -1.15285068222943
  H   2.89582811587772     -1.06989091911034     -1.58931813073477
  H   3.98560103139304     -2.63275328179044     -0.17426417530868
  H   1.82198184014344     -1.91000888667327      0.43110849003751
  H   1.77065736724276     -2.08473367505488      3.07822628349852
  H   1.27314504399278     -0.52150030989629      3.72622190452952
  H   0.46453596943384     -1.18869861840437      2.30873564303998
  H   4.54000231319284      0.29557754921442      2.08463343078226
  H   3.61782977278412      0.35709802084223      3.58335462859600
  H   4.19431277104650     -1.19211750320749      2.95371732701041
  H   1.17882096129572      0.89649727729369      1.10218284943577
  C   9.21012550459501     -1.81950221234717      0.66974275917850
  C   7.82469245191650     -1.20076413803617      0.43657325064824
  N   6.78039834207081     -1.40747749264956      1.45220570273196
  C   7.27387390016612     -0.03697916128411      1.24813624784646
  C   8.05924813532451      0.66129301128614      2.39862202802494
  C   7.37048541254665      2.03361573653316      2.70214117371477
  C   8.05980274456289     -0.20502015872224      3.68801756425703
  O   9.42813721868694      0.87548769852361      2.04743620515717
  H   9.48644923213368     -1.77177252495597      1.71603192254743
  H   9.20558317284708     -2.86075999793551      0.35986046390955
  H   9.96556627353017     -1.29377737002976      0.09375903000316
  H   7.51574973381440     -1.21609712060142     -0.60345197034693
  H   5.84232087430524     -1.56004793869080      1.06030658622007
  H   6.63865667257566      0.64221084731318      0.69452234930686
  H   6.34055369352090      1.87613123771879      3.00315005832228
  H   7.89558107713886      2.54103976183200      3.50387554641171
  H   7.37848620683571      2.66997835761013      1.82406065153487
  H   8.50065002820705     -1.17559203687849      3.49747270707836
  H   8.62967864709390      0.29990951052864      4.46092942243242
  H   7.04216631823581     -0.35485621865292      4.03042918459587
  H   9.46668614153877      1.34119948374452      1.19216648173294
