36
Coordinates from ORCA-job dimer_004336/dimer_004336
  C   0.58715568256677      1.24043325924708      1.08928833405135
  C   0.45599151432589     -0.10759610002905      0.38385738137531
  C   0.21774589024016     -0.18174567059005     -0.97976159606115
  C   0.09950670321133     -1.41911704085958     -1.60266431547950
  C   0.21663122481252     -2.58422281150946     -0.86483976134390
  C   0.45515393658003     -2.52498137279188      0.50655097514522
  C   0.57396408040860     -3.80899738851268      1.32503375186351
  C   0.57188330593958     -1.28628984674040      1.11513153628340
  H   0.67957932888900      2.04604356532957      0.37013712240514
  H   -0.28625305207372      1.43429061362582      1.70825667654941
  H   1.46087053141697      1.24742960759437      1.73383189027903
  H   0.12658014670163      0.72420689510297     -1.55791491866589
  H   -0.08246520269143     -1.47025859198703     -2.66641099630853
  H   0.12950027499654     -3.54403315682655     -1.34984277755433
  H   1.13526407154520     -4.56079603520573      0.77957842103198
  H   1.07532517372924     -3.61772658422777      2.26702965876022
  H   -0.41185990270175     -4.21713817473951      1.53967265880898
  H   0.76659756105362     -1.23220067909068      2.17413659685287
  C   3.64266193076241      1.09295429936228     -0.69151569490863
  C   3.69512868281917     -0.28532934399004     -0.03603807472485
  C   3.57312992849760     -1.43226204825992     -0.81608996951449
  C   3.63187360562772     -2.68389026632450     -0.22809996421239
  C   3.80868608778168     -2.80463468092819      1.14497137678647
  C   3.92252626908127     -1.67139919247891      1.93580409594180
  C   4.07580807640183     -1.78867674724037      3.45155784464682
  C   3.86914054204899     -0.41844507734773      1.33245274031533
  H   4.52803845797103      1.25978061382364     -1.30103961929683
  H   2.77309081566097      1.17168533639643     -1.33736045140966
  H   3.59127102697806      1.87557799433877      0.05631816861925
  H   3.42726128154364     -1.34005861247733     -1.88125051717449
  H   3.53471261328703     -3.57029361058215     -0.83806022578223
  H   3.85207654452111     -3.78176981800462      1.59945474031715
  H   4.74575761520196     -1.02466724361640      3.83321109644950
  H   3.11216796280083     -1.66161008582518      3.94109132614837
  H   4.46643573417991     -2.76240737019367      3.72633622712680
  H   3.96370748988424      0.46502424155865      1.94297869467883
