40
Coordinates from ORCA-job dimer_006117/dimer_006117
  C   1.72236041869192      0.79895121704937     -0.60750671878100
  C   1.38994799517245     -0.65104616144574     -0.20827507791070
  C   2.52761270013897     -1.71535699304925     -0.24079343317509
  O   3.44916497590316     -1.92841438497713     -0.97232275568078
  C   2.05350198858838     -2.31110402004396      1.11917531500213
  C   1.16174052909170     -1.03076203143720      1.30458264688165
  C   1.81872475674423     -0.02941587494659      2.28120859659487
  C   -0.30894301537981     -1.29127167175011      1.69115797611863
  H   2.56619125804105      1.18211283158884     -0.04666823295045
  H   1.96936439431990      0.84416219082407     -1.66468935241228
  H   0.86895605882251      1.44556167269556     -0.42684065124763
  H   0.55741195752149     -1.01180488684780     -0.80729659297701
  H   1.47707463603098     -3.22200131273342      0.98303437787030
  H   2.82141520020608     -2.48579461714277      1.86516806321285
  H   2.86187495348446      0.12778556059042      2.03293890410595
  H   1.30910914878421      0.92728046612697      2.24978542880796
  H   1.76481824373898     -0.41147789197443      3.29501674000775
  H   -0.37301668293339     -1.68614745920107      2.69989091396201
  H   -0.87861456976577     -0.36841834163764      1.65083909655755
  H   -0.76504002417613     -2.00511229607649      1.01419814978464
  C   5.29740814002767      2.03302053668773      0.70523236013953
  C   5.69204650833082      0.65268943168838      0.14674295380905
  C   6.77926051549733      0.58817097348135     -0.96751603102193
  O   7.02582025667754      1.25436235235477     -1.92857654276395
  C   7.46599606590070     -0.62544898047147     -0.27057364612571
  C   6.58809392206034     -0.32563564366113      0.99746234847224
  C   7.40490614052816      0.39976265806687      2.09087007795657
  C   5.84114568314179     -1.53963263156866      1.58841349484127
  H   6.16965288975417      2.60015539020581      1.00886483688900
  H   4.77357632127606      2.60329591302373     -0.05663500695426
  H   4.64317626308703      1.92551965601542      1.56478441743089
  H   4.80834516973686      0.12792393944896     -0.20676381339896
  H   7.21084356543759     -1.56406375153798     -0.75575542332591
  H   8.54211898529999     -0.56890202629891     -0.14626320047357
  H   7.96172609500249      1.23155481755301      1.67525014284835
  H   6.75223807912893      0.77783335493624      2.86976618597992
  H   8.11095824877287     -0.28864137008518      2.54257058347808
  H   6.54259571247151     -2.23245701906028      2.04099004221947
  H   5.14377164651357     -1.21674648684476      2.35376771604095
  H   5.28986486832810     -2.06380110954543      0.81467711018741
