40
Coordinates from ORCA-job dimer_009541/dimer_009541
  C   -0.16933800283422      1.53511970348277      1.30605680627634
  C   0.32941470962354      0.46725398382108      0.30708010228408
  C   -0.28374908550076      0.66905822031777     -1.10840754300248
  O   0.15802735418500      1.86821961987623     -1.73997552441683
  C   1.88418064268209      0.29948547254707      0.34998936086695
  C   1.72204988849084     -0.95342379390683      1.27315309323686
  C   0.19696231243998     -1.00394587359465      0.87867204648063
  O   -0.77477460902880     -1.28678488928304      1.85562717486633
  H   0.27761235903907      1.38983420060759      2.28295305269534
  H   0.10702890656013      2.52918273573204      0.97195007766221
  H   -1.24901045532453      1.49184460168493      1.41027146001265
  H   0.03724685574738     -0.15417567370487     -1.75209473576278
  H   -1.37797030181265      0.62044961107021     -1.03963769696662
  H   -0.20650184251196      2.63833588982544     -1.26666596753162
  H   2.29255228733273      0.05864169435106     -0.62352192252851
  H   2.43574329607022      1.13407515353145      0.76390149310156
  H   2.31578835270137     -1.82884078085147      1.03310017329312
  H   1.86559721276073     -0.71304991823297      2.32068058920391
  H   0.03443735428609     -1.71071426278043      0.06180882809742
  H   -0.61388810532767     -0.75172301419649      2.65378639571945
  C   5.53908484933445      0.99107044646356     -0.94227123257023
  C   6.30732670055729      0.16030771607230      0.11032934482174
  C   5.37760220248598     -0.85089393747877      0.84006819348772
  O   4.84495477082670     -1.85115514255290     -0.02361605224485
  C   7.64213757702050     -0.42441263049467     -0.46086335621639
  C   8.43504893449490      0.75565871531839      0.19234651718628
  C   7.17030818168956      1.06756379339464      1.07936065688631
  O   6.78497699105355      2.40009428608758      1.31625160655438
  H   6.20165807962731      1.68780567539873     -1.44279486315000
  H   5.11840843452521      0.34647422063814     -1.70618383082522
  H   4.73199125629389      1.55150730826549     -0.48136260978038
  H   5.95896205675638     -1.37882849072636      1.60045517308640
  H   4.58590098517641     -0.29779264835288      1.36024115235799
  H   4.26533908528127     -1.43091169613188     -0.68468489909058
  H   7.88886728902974     -1.38593333654427     -0.02596587886891
  H   7.69971569806735     -0.50385902343019     -1.53923687623029
  H   9.34677053194492      0.50689178384281      0.72241807790782
  H   8.64722444458604      1.55162985139507     -0.51271199785043
  H   7.26123630032253      0.58955759807010      2.05719675766068
  H   6.76814943034702      2.89744220446817      0.47864215128992
