44
Coordinates from ORCA-job dimer_006615/dimer_006615
  C   1.43494513456326      1.76621494852516     -0.07493046422979
  C   0.99270930240616      0.28538303985168     -0.19248646254526
  C   1.69310146247153     -0.54474612843476      0.91666012739915
  C   -0.54842127445582      0.17213693110283     -0.05140017346936
  C   1.40727795221466     -0.30879228321109     -1.56775205824771
  C   1.00988798858592      0.48071530018307     -2.86066616713848
  C   2.55347119053025      0.65315566047940     -3.06249580676212
  O   2.81385251467971     -0.12025654881833     -1.86549002421525
  H   2.50555163241905      1.85198015286697     -0.22249844371935
  H   0.93149667425844      2.38915292611944     -0.80326672622208
  H   1.19434681927476      2.14354191864430      0.91213753562536
  H   1.43254392826035     -0.15992199461779      1.89587084844988
  H   1.39154672965734     -1.58466032026579      0.86547005401451
  H   2.77006188313533     -0.49116706833147      0.79916297105359
  H   -1.04911524399378      0.74031665723121     -0.82697101689431
  H   -0.86466701253840     -0.86241662189583     -0.12453372997903
  H   -0.86444965188343      0.55789299706062      0.91122706615415
  H   1.13020639239353     -1.36623374943298     -1.59555650764805
  H   0.51353679268924     -0.11209650359298     -3.62079500448042
  H   0.45421061933141      1.39613531919941     -2.70171197871116
  H   2.96790404567306      0.18956837423213     -3.96397977287826
  H   2.92375895816431      1.68136025336063     -2.98781580170399
  C   5.46128731465512      0.96366108325485      0.09119989831785
  C   6.46228198986765     -0.21143472639920      0.22317743029965
  C   7.62506238040647      0.20690516589398      1.16257408410087
  C   5.74359863796507     -1.46633108987186      0.78541942778832
  C   7.06927564667259     -0.56757310655143     -1.16305397570453
  C   6.07715530345296     -0.86712195847028     -2.33622593533057
  C   6.67623389120913      0.42548888013242     -2.98611276041769
  O   7.58448457060869      0.59078284399162     -1.86866464548481
  H   5.95935271287847      1.83103027660421     -0.32612979219454
  H   4.62734884177585      0.69452772992687     -0.54753223296075
  H   5.07150394593485      1.22644827424117      1.06714373240665
  H   7.24164380344034      0.48869237586984      2.13634533701461
  H   8.32602851163720     -0.60943943870039      1.29289535565647
  H   8.15652279183897      1.05344787611761      0.74071106736904
  H   4.92834402574429     -1.76210256409074      0.13459007159682
  H   6.43457650803914     -2.29703887037626      0.87332457748880
  H   5.33697173119927     -1.25567315364830      1.76780687035959
  H   7.83950436771710     -1.33149294565372     -1.02842850497074
  H   6.28134627568471     -1.78361363795473     -2.87717609365394
  H   5.02202887551184     -0.82040810072179     -2.08677483981180
  H   7.19867783717538      0.28174336094020     -3.93738389037275
  H   5.97688210074724      1.26184930121011     -3.08700570634842
