40
Coordinates from ORCA-job dimer_006176/dimer_006176
  C   1.67800775743224      1.02181688473363     -1.22112826923060
  C   1.93523397235611     -0.43972414071151     -0.73019770486019
  O   3.03832309912182     -1.03550968555219     -1.39569236873797
  C   2.13444880228914     -0.44563664918866      0.80151984943243
  C   1.00184252931912     -0.79721918873540      1.76495604275010
  C   2.18812403764477     -1.75773982346306      1.57212359672831
  C   1.95756772509047     -3.09500807595366      0.84083427283673
  O   3.17253751116921     -1.80132789089198      2.57939146259443
  H   2.53856978207597      1.64441276576526     -1.00002851983605
  H   1.50901823356688      1.02955816099575     -2.29289165283549
  H   0.80968551818491      1.44076186383635     -0.72344210924135
  H   1.05862561025116     -1.04285344053549     -0.97552497493858
  H   3.86037300492768     -0.58614799597458     -1.10104479270080
  H   2.81649358395113      0.31231537803899      1.15458365532497
  H   0.94035267755130     -0.24285147062223      2.68912732570684
  H   0.04706219214125     -1.08542223969401      1.35311129440692
  H   1.13900547380399     -3.00995865964916      0.13576913196943
  H   2.85024180409465     -3.38326134144846      0.29290657440580
  H   1.71349904118386     -3.87765587206381      1.55358610646903
  H   2.87262031464359     -2.38749351615260      3.29941262264558
  C   5.88555550674072      1.54247145125466      1.76055848179143
  C   5.71821798238725      0.18341186904297      1.01103335512638
  O   5.21381083325979      0.38392987111507     -0.31302773811022
  C   7.04996826579151     -0.58796652414983      0.99402744836895
  C   7.37762288914446     -1.58290729439972      2.10657815375246
  C   7.09016027508013     -2.07876154442754      0.67933577502633
  C   5.78725662908393     -2.85158602862903      0.39843595866214
  O   8.19243863110645     -2.46167659047958     -0.10727814034907
  H   6.62034022763428      2.16687580624421      1.26346136557074
  H   4.93942320007383      2.07348969939681      1.79081209133718
  H   6.21956214991104      1.36124371312939      2.77738504440650
  H   4.96637368940411     -0.41219536456776      1.53698189475596
  H   5.91022145738715      0.77345508429904     -0.87264326228930
  H   7.88955692164252     -0.02494572342334      0.61333453339189
  H   8.39667881518680     -1.61772182744829      2.46120419019212
  H   6.62952486997223     -1.76012101136064      2.86457859476282
  H   5.00303593916522     -2.54574007997658      1.08374532083364
  H   5.45130396904772     -2.67054011390271     -0.61938715588673
  H   5.95173167893954     -3.91767206278769      0.52483319564116
  H   8.39661239824094     -3.40086239166235      0.06193935012590
