36
Coordinates from ORCA-job dimer_009693/dimer_009693
  O   -2.28077321714946      0.45576446747994     -0.10743463597399
  C   -1.38739245586164      0.29985683167218     -1.20351127310581
  C   -0.77447083117629     -1.12218941645076     -1.24334986610881
  C   0.74111155579680     -1.27448386275221     -1.36355646608764
  C   0.04357686608890     -1.52749833480212     -0.01768424817558
  O   0.11153394981811     -0.56121135121184      0.98511784683758
  C   -0.08242415271759     -2.99987592793996      0.45017418675159
  O   1.18874345030212     -3.47358757491965      0.92465247843868
  H   -1.76077780628201      0.31153258684881      0.70943432995223
  H   -1.95668673173083      0.47784396179959     -2.12146675222033
  H   -0.57669596507561      1.03793881368989     -1.17156371652443
  H   -1.39675072633450     -1.87969705622144     -1.69462353996196
  H   1.14415164180205     -2.11710422070885     -1.90512110968825
  H   1.31795036113039     -0.36728934288527     -1.45576010775039
  H   0.95346055196241     -0.63530724585040      1.49382109230023
  H   -0.83918026967506     -3.05493900315763      1.24502837906244
  H   -0.42846093867951     -3.61137482621902     -0.39191482985765
  H   1.11523627092744     -4.41088186681717      1.18771413529414
  O   6.65005999427776     -2.98902917376569     -0.30638252466699
  C   6.21467822215498     -1.79328285379589     -0.94435509743225
  C   5.38663445019366     -0.90020208222418      0.01212978093539
  C   4.03171680480004     -0.36811559343338     -0.45697672676400
  C   4.10292590731457     -1.51170419059147      0.56472133199837
  O   3.84120512433751     -2.82094915794886      0.14248716436288
  C   3.74063492629161     -1.20474054920988      2.04664638296013
  O   2.34840998711792     -1.34858042714455      2.31845037291366
  H   5.84879525691778     -3.47239820307982     -0.02115163823160
  H   7.10806402454792     -1.25084434779952     -1.26998636601826
  H   5.61783375644441     -2.00942320772629     -1.83880295635457
  H   5.96446700150297     -0.28665483849420      0.68677001905409
  H   3.70320689827825      0.60376520679845     -0.12006500313380
  H   3.73283472776283     -0.61705292416618     -1.46350876812535
  H   2.88023451372897     -3.01358874927715      0.17897573619071
  H   4.33798034501957     -1.85647253565190      2.69878917187320
  H   4.01421441730470     -0.16961133105811      2.27265000398744
  H   2.07240708885795     -2.27653167298491      2.17216321326895
