40
Coordinates from ORCA-job dimer_009840/dimer_009840
  C   0.33177304240079      0.53728430673843     -0.28168918258449
  C   1.34653711410227     -0.56744335395382      0.10017661709120
  C   2.47175233476358     -0.65618877736335     -0.98449518895905
  O   1.97258930337519     -0.96270825985853     -2.28410988997238
  C   1.99850506545452     -0.38281903308568      1.49506614294600
  O   2.60292742034103     -1.54496947714271      1.98885950432993
  C   2.62534594512122      0.96865744198639      1.86475355027963
  C   1.33898730811053      0.50697291736044      2.54951485115128
  H   0.77555209480490      1.52213569521359     -0.19849371403497
  H   0.01574724565743      0.39917470638865     -1.31080836656575
  H   -0.54467184882657      0.49661337956627      0.35438334654352
  H   0.82679358967371     -1.52142445958846      0.13168459278567
  H   2.95840638757364      0.31793187351417     -1.06094895998132
  H   3.23010241244200     -1.37963233247520     -0.66386058983249
  H   1.49549650723383     -1.81273299189939     -2.25099238386955
  H   3.52978736848617     -1.61312139380274      1.67214308672685
  H   3.53493238185085      0.95153854910122      2.44490672677909
  H   2.56785003088819      1.78002119603351      1.15731801621679
  H   0.41735569517407      1.01478844873616      2.31720999836470
  H   1.41628875847669      0.17123530366094      3.57319545646374
  C   6.67294873644345      1.93693767129495      0.35217155687805
  C   5.91954862906714      0.61455768842488      0.07365876752400
  C   6.38858626132526      0.00924148103658     -1.29445367409705
  O   6.17728842064549      0.90199857377016     -2.38240586093638
  C   6.07615446131101     -0.44475806086919      1.18947629742661
  O   5.23388881981769     -1.56214857430506      1.01152292311972
  C   7.42894026254089     -0.69782768814554      1.86226485908076
  C   6.29544700294387     -0.03648743784563      2.64595152181547
  H   7.72713589119270      1.76121351155779      0.52954612279776
  H   6.58481603702676      2.58357005016133     -0.51554535118349
  H   6.25495184688478      2.45353446728482      1.20828260885126
  H   4.85860634389234      0.83438259233644      0.00480294332231
  H   7.46412026851309     -0.18389148470377     -1.24560043022763
  H   5.88713635895533     -0.95016458255146     -1.46408601980491
  H   5.21995437328003      0.97786802530150     -2.55660813815778
  H   5.67400688213756     -2.24875743007452      0.47822930462232
  H   7.67729487604999     -1.71860822467470      2.11430625314898
  H   8.27599850433920     -0.09858387849989      1.56659668138779
  H   6.37444779429224      1.01152458304543      2.88887252686171
  H   5.79683507223580     -0.63242502167407      3.39798549369196
