48
Coordinates from ORCA-job dimer_006932/dimer_006932
  C   2.53843807841352      1.10850523249364     -1.54449210045588
  C   2.80069610510425     -0.35697971056910     -1.10716234297085
  C   3.83138056267783     -1.05757881624530     -2.03337688367946
  C   4.09020302994641     -2.49646954577898     -1.57735906758431
  C   3.23897110227996     -3.63848495660646     -2.12137442024826
  C   4.71509994455219     -3.54007336744734     -2.49621481714062
  C   5.09665740267418     -3.16188150316508     -3.93212550240897
  C   5.67647460544029     -4.55254251367167     -1.85832203450441
  H   3.45745890300684      1.68417993018547     -1.51487666209927
  H   2.15239879276102      1.14101279701051     -2.55769824389942
  H   1.81646480672822      1.58523157887521     -0.88963538322794
  H   3.16779719496280     -0.37319909257416     -0.08635705831750
  H   1.87226101057524     -0.91867977160444     -1.12001447200419
  H   3.45849113718116     -1.04832052663859     -3.04989571056675
  H   4.76014940611590     -0.49631396001356     -2.02785619347147
  H   4.37133383816284     -2.57134595646337     -0.53920628529737
  H   2.93167400979378     -4.42308067518301     -1.44884372350240
  H   2.50899757551704     -3.39956198900388     -2.87761774079791
  H   4.35498368783448     -2.51733511200962     -4.38684187761539
  H   6.05351977303779     -2.64892967639507     -3.94452695073506
  H   5.18556466002372     -4.05644607596834     -4.54044518656022
  H   5.67550782564039     -5.48116974932718     -2.42045297853005
  H   6.68822189040291     -4.15952955392965     -1.85137773640221
  H   5.38531824555679     -4.77041999746425     -0.83720826324653
  C   6.86765524461815     -0.13608103501570      0.08664329266430
  C   7.35319889591659     -1.44099605725190     -0.59714518893525
  C   8.85344907053488     -1.37048629177588     -0.99118995854810
  C   9.29248776426093     -2.66131587454117     -1.68829729491013
  C   9.05782992283892     -2.84381201635423     -3.18383896646876
  C   10.47930830463977     -2.71460731353563     -2.64379204969870
  C   11.27560483912968     -1.44051973635258     -2.94978276136344
  C   11.34399449418342     -3.98268620787004     -2.61181635765558
  H   7.43939361918693      0.05962090818640      0.98749904895470
  H   6.98790612434759      0.71157255739913     -0.57932956269362
  H   5.81944598948553     -0.20952809451975      0.35684870338931
  H   7.19593246705602     -2.28288763272185      0.06834048434241
  H   6.76491437615313     -1.63019902735920     -1.48790176793615
  H   9.00892112159771     -0.52044789573327     -1.64341883119381
  H   9.45821786390393     -1.20852085602297     -0.10415845176913
  H   9.15281878703813     -3.54200380252194     -1.08172140253972
  H   8.72909197191534     -3.80473923179820     -3.54571803894102
  H   8.64992866773743     -2.00803547171374     -3.72863591078662
  H   10.62642656398585     -0.58177689450723     -3.06608698047483
  H   11.98025253471049     -1.23269896216537     -2.15031794217273
  H   11.83616608480983     -1.56644503692593     -3.87083755718181
  H   11.83045303925793     -4.13523875783604     -3.57031354206984
  H   12.11334172185393     -3.89737057302240     -1.85052839585967
  H   10.74008308744518     -4.85582364454528     -2.39199102488442
