38
Coordinates from ORCA-job dimer_007789/dimer_007789
  C   1.89505415227182      1.37860321154042     -1.56512848305515
  C   2.27378608896239      0.13515470038110     -0.72299227754094
  C   2.97655305988916     -0.94313790961508     -1.58195181188255
  C   3.33814460563945     -2.16293712633241     -0.68644748734567
  O   4.13752490618409     -1.80323267862900      0.43689502345599
  C   3.77186027949311     -0.70394484436439      1.19110568428441
  N   3.96643323250518     -0.66691124794708      2.43052844146397
  C   3.22385754218204      0.52501462746761      0.43771440543046
  H   2.78162869217339      1.82206611185387     -2.00536604574318
  H   1.21618563642658      1.10473586640522     -2.36597578178717
  H   1.41120958409150      2.12641412972634     -0.94521548199228
  H   1.36879138813315     -0.29356356498742     -0.30449971553659
  H   2.32931510759479     -1.27378919141812     -2.38782783050643
  H   3.87616684773810     -0.53120992591317     -2.02651367293754
  H   2.41487069971480     -2.65060406510442     -0.34833467165931
  H   3.91361763815228     -2.90087803409246     -1.25445264263927
  H   4.36578118801851     -1.53962980313810      2.80000682219738
  H   4.06743424481216      1.07944189051220      0.03340223536062
  H   2.72675945036736      1.16677255546954      1.15858083404943
  C   7.24150002625205      0.75474650905103      1.78928001146155
  C   7.38575031504987     -0.57905243660561      1.01607083560730
  C   7.05512055499093     -0.41340053803367     -0.48548205719063
  C   7.19370978664680     -1.79196283606625     -1.19103579305522
  O   8.48267303797670     -2.37434866654392     -1.01653739949216
  C   9.04787310351196     -2.37880648771214      0.24416467117228
  N   9.78804461863403     -3.31982957422661      0.62387266657119
  C   8.82896004576533     -1.13292829352422      1.12683466480450
  H   7.89387879937440      1.51130642820279      1.36722387452522
  H   6.21836423095416      1.11312812496207      1.74264954590772
  H   7.50537807618735      0.61974176520000      2.83297201274935
  H   6.69817664239676     -1.30472565456990      1.43733418960279
  H   6.04287337873330     -0.05114056879869     -0.61785324412627
  H   7.73154738893828      0.30523004125662     -0.93568359175227
  H   6.41989672648755     -2.46622548890104     -0.80220943716840
  H   7.04359666454651     -1.69207640345704     -2.27042327619061
  H   9.87014964051416     -4.06637051601754     -0.07856684831488
  H   9.52946764465334     -0.36504774214429      0.80619948682962
  H   9.07653227403587     -1.39739587188614      2.14997680444279
