40
Coordinates from ORCA-job dimer_006619/dimer_006619
  C   1.13531531934786      1.21711338229694     -0.32329240965804
  C   0.65109701186025     -0.26694740161775     -0.35813612327237
  C   1.35172294664269     -1.07811244902201      0.77728788086620
  O   -0.76804872485000     -0.33872907828574     -0.22855219097881
  C   1.00503983429993     -0.89050249168084     -1.72879960060854
  C   0.36558580847389     -2.28142045084711     -2.05201943640265
  O   -0.28707329984090     -1.73170923254097     -3.22569858094847
  C   0.18450798909165     -0.38506031161776     -2.96142200810616
  H   2.21555619577498      1.25332213591729     -0.42294429870763
  H   0.68383669418249      1.77846178785048     -1.13364290014738
  H   0.86237408696894      1.68479874400279      0.61620212671147
  H   1.08320590944064     -0.68109751805263      1.74999746840961
  H   1.05317575133960     -2.11951977472031      0.73390013755433
  H   2.42929957182627     -1.01090954527888      0.66554719146268
  H   -1.03232756935635      0.04597103651720      0.62650451006367
  H   2.08070948063426     -0.86034020140308     -1.88031935253996
  H   1.07012919636061     -3.08270464301381     -2.29685276255709
  H   -0.35079189758187     -2.63737477895955     -1.30461828505483
  H   -0.63139164676641      0.30169406982676     -2.71408550116153
  H   0.77336946473531      0.02597391382765     -3.78768691696101
  C   6.45237414067783      1.94742474535597      0.22031653489838
  C   5.85394279831369      0.50684296187711      0.29188509151240
  C   6.64886106842709     -0.35576412978022      1.32264947811835
  O   4.47118470459718      0.55388566904409      0.63654731314653
  C   5.93532439693239     -0.15463967566881     -1.10496472090532
  C   5.13625202992939     -1.48739201130564     -1.29141907228869
  O   4.32741171925252     -0.87965364504212     -2.33089228570334
  C   4.97238498227886      0.41305186011681     -2.20037825887939
  H   7.49285441864629      1.90785063746550     -0.08334279112187
  H   5.90214791243948      2.54663359039891     -0.49726304918807
  H   6.39855572931558      2.43141567273904      1.18983217776504
  H   6.59870413253911      0.08866925773781      2.31111561791444
  H   6.23499928501609     -1.35728757645038      1.37150087994042
  H   7.69161985733837     -0.42311489411568      1.03196006517232
  H   4.37030282318273      0.96558203648147      1.51379729321801
  H   6.97099481354139     -0.21486273269407     -1.41740012760508
  H   5.71613112897138     -2.34278939727644     -1.65402247772733
  H   4.54399770037183     -1.79079158425568     -0.42219205738584
  H   4.28701922479775      1.19039342518762     -1.84767969931918
  H   5.44995253784696      0.74204694098605     -3.12943086852522
