36
Coordinates from ORCA-job dimer_001754/dimer_001754
  C   1.96332998240568      1.30792032713206      0.12007624821874
  O   2.05866698733933      0.15222416966336      0.93892479532401
  C   2.16542712033787     -1.06294198158223      0.21170943212418
  C   2.19954324599306     -2.23256329304384      1.22076529212316
  C   2.10989307349122     -3.62330460488416      0.58058103963569
  C   2.98372035491294     -2.03706020928829      2.50103834988887
  N   1.50112208777733     -2.04209107655619      2.50558384514377
  H   1.07194805257315      1.28290997536231     -0.52062409566966
  H   1.89257123426804      2.18030158122538      0.77748799138037
  H   2.84425297284332      1.42668837874438     -0.52384340061413
  H   1.30591761375672     -1.19493474583128     -0.45832970665975
  H   3.06924289387927     -1.07815146489947     -0.41120713983138
  H   2.97519452739524     -3.80981910522134     -0.05087805265330
  H   2.07587403531754     -4.38096770301182      1.35652547727494
  H   1.21126387282588     -3.70905343896291     -0.02262851698000
  H   3.45681709438210     -2.89704118483620      2.95953098562022
  H   3.51591771073327     -1.10264371908200      2.63803589072121
  H   1.13041234347592     -1.09015439594006      2.58079348054294
  C   5.36967955720986      1.18062764372914      1.53988209482321
  O   5.60076320731342     -0.18969132098388      1.25072498933270
  C   6.83239061967971     -0.45702455960407      0.60020578438479
  C   6.93907545961837     -1.98541810106649      0.39703667679204
  C   8.07742385715233     -2.42567114028168     -0.53120491072459
  C   6.50648112763426     -2.87431495555556      1.54419151856991
  N   5.68251457124869     -2.75236916468579      0.31837725687354
  H   5.36798950369074      1.79637853780845      0.63131867245989
  H   4.38521672688390      1.25819149498358      2.01399789427275
  H   6.12463153737632      1.58589872369147      2.22639569495165
  H   6.87929439575612      0.04289513791662     -0.37594004048614
  H   7.68723668265426     -0.10241209448636      1.19080222895167
  H   9.03954381444957     -2.12517416257148     -0.12662089943759
  H   8.06581404610670     -3.50528380077172     -0.64040956987590
  H   7.96131288387923     -1.98046966509574     -1.51485303065770
  H   7.00126622043020     -3.82695499657905      1.69018135251148
  H   6.16261986612558     -2.39859791703849      2.45569325054242
  H   4.87791671908197     -2.14274916839636      0.48945312112580
