40
Coordinates from ORCA-job dimer_009775/dimer_009775
  C   0.99462348583096      1.94682372853454     -1.34167470769300
  O   1.69287871413255      0.74159277524578     -1.06106133843207
  C   1.70459734017011     -0.22506648510979     -2.10121011286497
  C   2.41261136152427      0.28596919412935     -3.39120736109007
  C   2.33747037881348     -1.51272301560062     -1.48731482829493
  C   1.14079385694462     -2.11267994369888     -0.70469707646736
  C   -0.11145745250224     -1.53104095503629     -1.45774169045277
  O   0.37924948354800     -0.60725635385191     -2.43014077082053
  H   1.55399044675801      2.59786655860117     -2.02404918416513
  H   0.00507991325709      1.75725649120446     -1.77548007945037
  H   0.86427175267689      2.47677638000608     -0.39314883882867
  H   3.41190690928818      0.63332025862091     -3.14690981769780
  H   2.48186870382078     -0.52380225314757     -4.10980424940369
  H   1.85101185212660      1.09746077233045     -3.84137498807480
  H   2.65049150665236     -2.17309123565323     -2.28758940438944
  H   3.19495640135109     -1.28269184413722     -0.86039786401185
  H   1.14682284429595     -3.19649840955882     -0.71136673472100
  H   1.15454147002070     -1.77821225508604      0.32689320483349
  H   -0.67450564586463     -2.31184798582528     -1.97787301038738
  H   -0.79186015014227     -1.03281543031537     -0.75838192707700
  C   5.01037185938305      0.95804509246558     -0.38891136312972
  O   5.31815463212680     -0.42020576021522     -0.21609775932330
  C   6.61970246914823     -0.82055771000514     -0.60996500068793
  C   7.74619240061024     -0.07292928360356      0.16399768087565
  C   6.65544782960953     -2.37469888609290     -0.45207985459372
  C   5.98907623155869     -2.85975944024826     -1.76729066342473
  C   6.15516458118697     -1.63388319878370     -2.73880403328333
  O   6.80498426553719     -0.60157953418599     -1.99915509857820
  H   5.45836155239571      1.57670692046062      0.39708141071306
  H   5.34977205831992      1.33301014740067     -1.36159030031746
  H   3.91940934462656      1.05900063926695     -0.33597200186848
  H   7.59678443319020     -0.19068556916226      1.23296675435670
  H   8.71047677437593     -0.48807417657756     -0.10994558251989
  H   7.74296782640301      0.98329547954475     -0.08328936834347
  H   7.68343425953373     -2.71215360088367     -0.38371331435893
  H   6.12022994024681     -2.69027795933067      0.43664969249496
  H   6.46794904844160     -3.74913370058465     -2.16049153027532
  H   4.94016664129433     -3.08221642798414     -1.60853846998587
  H   6.77639422268942     -1.87933646774278     -3.60528093400592
  H   5.18040645661907     -1.29583855538973     -3.10757548425456
