40
Coordinates from ORCA-job dimer_009552/dimer_009552
  C   2.13839668141383      1.73295719015400     -0.79881917843873
  C   1.59680690635761      0.34314055597516     -0.37520940946403
  C   1.47961734182939     -0.62048798308870     -1.58499516022745
  C   0.43136490615670     -0.15337105042584     -2.62505974363125
  O   2.77139517118687     -0.86710811692020     -2.20246587671284
  C   2.82488021876504     -2.25387314085741     -1.79679277892087
  C   1.37227966122074     -2.14372752798926     -1.17967818523326
  O   1.22107885853432     -2.35992378265048      0.20461099773213
  H   3.05811475846658      1.61857890749389     -1.36338962389534
  H   1.42184582325324      2.26546466156785     -1.41330578361239
  H   2.34668599557239      2.33690882887521      0.07820133169880
  H   2.26117527487937     -0.10156109322286      0.35814331582079
  H   0.62169205798275      0.43756482784191      0.09266234151536
  H   0.71445946527153      0.80892084988389     -3.03762451462992
  H   0.36245070712669     -0.86719742145468     -3.43883639751020
  H   -0.54254960267652     -0.05998317097036     -2.15482043314695
  H   2.92937942420605     -2.93920296929899     -2.64376350514027
  H   3.61907462148865     -2.45594410549294     -1.06624318801418
  H   0.61916406053362     -2.68237335231638     -1.76446114779349
  H   1.24236691881933     -3.31615335317058      0.39648544851005
  C   5.62017472800926      1.23103886831896      0.82882208591227
  C   5.52414038340605     -0.22117765669679      0.29486485891533
  C   6.40883721085086     -0.42961977958289     -0.96160870771174
  C   5.93007967966553      0.39947006842431     -2.17712375868206
  O   7.81518930930599     -0.20138427636124     -0.66476678563691
  C   8.17675033822309     -1.59470069254636     -0.77830747545128
  C   6.71738655153368     -1.94749454715984     -1.27412478195247
  O   5.96660890432896     -2.87286798022118     -0.51827582272610
  H   6.65891768984960      1.50086139480285      0.99226154590194
  H   5.18735060075499      1.93588872193855      0.12896560582623
  H   5.08750592334054      1.32015064823712      1.76976706707811
  H   5.84360134403538     -0.91576751792808      1.06458004559759
  H   4.49838373432216     -0.46457502966258      0.03931809710427
  H   5.97981309931814      1.45845000132951     -1.95057248830804
  H   6.55976777654201      0.20470034226701     -3.03800157302092
  H   4.90148313075087      0.13568335312507     -2.41715774190975
  H   8.98766540735453     -1.77187209105301     -1.49189557772100
  H   8.43632360821641     -2.04702106309716      0.18547608074355
  H   6.67630581682882     -2.16642934273538     -2.34624862898051
  H   6.26518151297452     -3.77981417533206     -0.71809055388436
