40
Coordinates from ORCA-job dimer_007502/dimer_007502
  O   2.74432207514937      0.98665579112957      0.88559086602615
  C   1.66092984428384      0.39661970800708      0.17462203899240
  C   0.98021219166759     -0.66001458952023      1.09865150231302
  C   -0.04817345420235     -1.56028758192492      0.35042767110440
  O   -1.13818948870512     -0.83037447189035     -0.17555513211796
  C   0.65362499713599     -2.59123121909641     -0.62186000927187
  C   0.48593199687582     -3.69574616210727      0.47193931629769
  C   -0.51617881785184     -2.76896635617808      1.23580490498718
  H   3.45839800732838      1.21877396759035      0.25538179674485
  H   0.92865872757773      1.15818495929247     -0.12008056860089
  H   2.00028398077480     -0.09335997741370     -0.74445347510320
  H   1.75228698578376     -1.29362393978346      1.52081320241133
  H   0.48433862991314     -0.15427033742365      1.92143729143905
  H   -0.81612061409136     -0.15145001414676     -0.79594496530322
  H   0.04708893443403     -2.78671289940915     -1.49896446940272
  H   1.66443370186331     -2.35837873104585     -0.93055305097626
  H   0.09202720854831     -4.64609790172759      0.13243242940568
  H   1.39829967129679     -3.87607279700725      1.02855155748521
  H   -0.37555778101480     -2.66115348298071      2.30445681229559
  H   -1.55191003659482     -3.01950313640841      1.03236443385409
  O   4.89157677903226      1.04513371393232     -0.94479626171253
  C   5.71726119672801     -0.08392839189714     -0.63933274350640
  C   4.80215582963939     -1.33781514211595     -0.53659175373537
  C   5.56163208602654     -2.60423296236751     -0.03864266733803
  O   6.64078349708993     -2.96189570453458     -0.87884180857214
  C   5.84379671992706     -2.55868260610926      1.51548804909301
  C   4.59276640129645     -3.46950719317460      1.74065164632672
  C   4.57172173984795     -3.79646005419039      0.21121566025595
  H   5.44820785827035      1.82873679819859     -1.11270590670894
  H   6.46778886722351     -0.23701989229397     -1.42418366532996
  H   6.24955056237124      0.06642945369403      0.30861869445723
  H   3.99733081689694     -1.12544076553495      0.15913732312732
  H   4.36592951090816     -1.54020428264510     -1.50992640919709
  H   7.36349555350094     -2.31442313843537     -0.78822662739713
  H   6.76947923321871     -3.06386200709517      1.76797703005991
  H   5.82603867384904     -1.58256898188133      1.98437244896179
  H   4.73077992848524     -4.31251609780477      2.40720394594101
  H   3.72285795112715     -2.90828546627910      2.06256349726036
  H   3.61603812848137     -3.74037218447108     -0.29542418592763
  H   5.04498162390673     -4.74552878395008     -0.01782691363871
