36
Coordinates from ORCA-job dimer_009882/dimer_009882
  C   0.72194381817001      0.37824207818845     -1.96286078643895
  C   1.12452526853078      0.48498463300361     -0.47915292526403
  C   1.97274964709918     -0.63218933639961      0.14280231173003
  C   2.58429457254739      0.74656234155535     -0.12041504908452
  O   0.19783372878254      1.12612295041204      0.35538321362203
  C   -1.00272451878298      0.40918473049571      0.58196961758748
  C   -1.80859114594305      1.20139698753666      1.66699322930277
  O   -2.85804038900448      0.82177468375797      2.12536836881414
  H   1.53582111014095     -0.05310691068402     -2.53715968730937
  H   -0.15016193748904     -0.25616927546260     -2.08689971550752
  H   0.49581285880171      1.36434571767331     -2.35899465372473
  H   1.77558959192415     -0.89659897792576      1.17074714742631
  H   2.26179350593228     -1.46123754265250     -0.48629819414336
  H   3.30298895705580      0.86264714044532     -0.91807574398048
  H   2.76897216142429      1.37678941042222      0.73750816953482
  H   -1.61808075417853      0.32630798112664     -0.32531517186208
  H   -0.81411800130796     -0.61212862363748      0.94314514450321
  H   -1.31837070883338      2.14796182966744      1.97119975196913
  C   8.00706548495408     -0.47823674603679      0.07500428331184
  C   6.56287600036030      0.05140075701743      0.16506624195148
  C   5.79289951196350     -0.09693911815840      1.48343397748965
  C   6.27043290663702      1.28130180746409      1.02106467524327
  O   5.82463362579684     -0.02331348866636     -1.02481242337149
  C   5.40272024018136     -1.32752210262459     -1.38689196423664
  C   4.43557872018278     -1.15619034052833     -2.60450422137746
  O   3.49036730040553     -1.87679500300306     -2.81478966139363
  H   8.52858823342835     -0.29135461484304      1.00790536306397
  H   8.02112148647685     -1.54716991972801     -0.11506624911616
  H   8.53852491490445      0.02571338762944     -0.72773639482253
  H   4.73393269151523     -0.30086379938419      1.42367960891916
  H   6.29297623793987     -0.56648317215814      2.31696326085590
  H   7.09331916010483      1.75060445132598      1.53954108501961
  H   5.52203942375651      1.96861594672723      0.65281016548168
  H   6.24667454471581     -1.96290226710367     -1.69466541546988
  H   4.87712785527028     -1.84080231032501     -0.57097554308671
  H   4.69707462853616     -0.29904518812731     -3.25672425263691
