40
Coordinates from ORCA-job dimer_006862/dimer_006862
  C   1.00355349466508      1.13143983128856     -1.29490950336526
  C   0.91710950344720     -0.02312952234057     -0.25968082492912
  C   -0.34790974885902      0.14132966499713      0.63706254428136
  C   0.86110040460248     -1.40810363684537     -1.00144268979238
  O   0.96504008774048     -2.48103914839880     -0.07437812036182
  C   2.17451621224505     -2.41382080975663      0.67560358505548
  C   2.29637971260017     -1.03501659971561      1.41728909870883
  O   2.11554033839567      0.04510524617749      0.50986389616208
  H   1.90670713182812      1.03400180940249     -1.88817577592659
  H   0.14318230093165      1.11250096960864     -1.95538056330811
  H   1.02916288867349      2.08584330653687     -0.77942216770936
  H   -1.22458556088180      0.27127934787129      0.01255538898041
  H   -0.50075683439927     -0.73399432891634      1.25825163890480
  H   -0.23970633552395      1.01431744502681      1.27183092570101
  H   -0.09405721587465     -1.50998585909253     -1.52241362613020
  H   1.66504942342766     -1.45118586091067     -1.74539086252521
  H   2.16057012234264     -3.23093245846958      1.40264786179603
  H   3.04586957399533     -2.54933058349951      0.02399569968151
  H   1.57155827642403     -0.99266082391320      2.23744554273118
  H   3.30407795312178     -0.93926101333141      1.83719628818642
  C   5.31532181898356      1.19710696217252      0.65492478831427
  C   5.81544939348998     -0.09766514610981     -0.04133874396275
  C   5.06856847384393     -0.30066710167546     -1.39412776903706
  C   7.36432286356522     -0.00737173890747     -0.29465783617333
  O   7.87614721527388     -1.24861903140748     -0.76540313760075
  C   7.63190218817872     -2.30253453856237      0.15906781962513
  C   6.09445027399058     -2.42250297385207      0.46095924996669
  O   5.55708137101701     -1.17078859784466      0.86557898862169
  H   5.76928306634047      1.29249247915018      1.63540968364614
  H   5.57695401900415      2.06493209892946      0.05936931326095
  H   4.23440555066041      1.15939919079857      0.76418174517946
  H   5.16426587832668      0.59502200014275     -1.99723438752966
  H   5.48288514078593     -1.13148381495342     -1.95339383886817
  H   4.01556701607248     -0.47738509261211     -1.20247017449585
  H   7.56970644764534      0.74661956638100     -1.05838209381744
  H   7.86338140434882      0.29642471623285      0.63291098104001
  H   8.00131832916124     -3.23051288754755     -0.28756683654289
  H   8.17472241282760     -2.13264586959655      1.09730472004785
  H   5.58128983473046     -2.81432964198325     -0.42412233426476
  H   5.93132646585087     -3.12723608647410      1.28195507044944
