40
Coordinates from ORCA-job dimer_010863/dimer_010863
  C   0.78304720022312      1.63319100546554     -0.63134317773029
  C   0.46891722685887      0.17607027366796     -0.20181556362376
  C   0.70196158858933     -0.83162023128715     -1.38449403792386
  O   0.53566004759399     -2.17368634532939     -0.94673344421925
  C   1.35868537716243     -2.51530750361216      0.16552742849788
  C   2.87121155933144     -2.57418544617067     -0.20945829023571
  C   1.10797153758580     -1.49732203334198      1.33720516365499
  O   1.31837164626181     -0.16268837820960      0.89170332362803
  H   1.80167880529390      1.70484818538036     -0.99567219463979
  H   0.10682293311348      1.94478691302235     -1.42156673670047
  H   0.66682488322797      2.30287234717737      0.21540008823806
  H   -0.58032196336804      0.10390545998574      0.10881535948176
  H   -0.03445429044689     -0.65269312092914     -2.17301070811178
  H   1.69904990032602     -0.66536111314915     -1.80770087008232
  H   1.03051785670174     -3.50838216974355      0.48585675407441
  H   3.28076267861854     -1.58028128231167     -0.36469748512102
  H   3.42698435750491     -3.04777416789539      0.59261188044213
  H   3.00550687117584     -3.15822614547548     -1.11416620580196
  H   0.08708074394329     -1.62461520977685      1.71783281771480
  H   1.80535789543060     -1.68862308444265      2.15709163349950
  C   4.02814228234880      3.16435633232778      1.47210648935380
  C   4.19243655560052      1.65373127013935      1.16332065626351
  C   4.82356132584730      1.43071434798830     -0.25842222091594
  O   5.10024296503077      0.05436561000904     -0.48788789345756
  C   5.90567229230863     -0.54111839444485      0.52625592364175
  C   7.36944396172752     -0.00371886014744      0.50921987762817
  C   5.24666284159697     -0.30521348600544      1.93396723905590
  O   5.04579446482264      1.08460914977454      2.15534325184186
  H   4.99265411563426      3.66112186543338      1.44838270181358
  H   3.37476263173035      3.62847262059370      0.73997156298910
  H   3.59578418818195      3.29422098286702      2.45944756093254
  H   3.21134288142848      1.15932379961404      1.18654490726644
  H   4.12104579006704      1.75308813472095     -1.03082083036998
  H   5.72764845625044      2.04161038216146     -0.35334941483770
  H   5.91468197960015     -1.61335859251683      0.31162405116651
  H   7.41170021077585      1.01134815263002      0.88859682940847
  H   7.99643945129306     -0.62750285316580      1.13771612982992
  H   7.76183441573830     -0.02197804872337     -0.50257371762359
  H   4.29705279520519     -0.85081927675456      1.98765859499256
  H   5.90671633968317     -0.67855644952577      2.72137204597925
