38
Coordinates from ORCA-job dimer_002947/dimer_002947
  C   2.11400734808585      1.49178288680516      1.88186732378493
  O   2.45153530664713      0.20590540338271      1.38623070266736
  C   2.30825818521893     -0.85650135010565      2.32220166255259
  C   0.81351849724466     -1.22546037891174      2.56233531892425
  C   0.41952428031311     -1.96046564095524      1.25612421585221
  C   1.70695763188931     -2.72725262212736      0.81278076564889
  C   2.87875995616979     -2.14497700726977      1.66319562201681
  H   2.68829595847338      1.74706033264495      2.78169517961032
  H   2.35368754933059      2.22105308991310      1.10182188137847
  H   1.04782445103369      1.58582591668473      2.11994482857272
  H   2.82242164502991     -0.61165392298007      3.25636568104021
  H   0.74938467459344     -1.89634414623172      3.41224415201941
  H   0.18910582753923     -0.36533503119268      2.76739565287472
  H   -0.42441477296931     -2.62501930505038      1.39942033498705
  H   0.14299250232689     -1.23326774636322      0.50099073822226
  H   1.60412435184332     -3.79288392157294      0.98134551290308
  H   1.89215551833700     -2.58451234186814     -0.24531802730996
  H   3.75108801555352     -1.92144605697500      1.05772614822273
  H   3.17466543459089     -2.84258212223414      2.43847652349421
  C   4.81952991149729     -0.55259407424668     -1.06212748428041
  O   5.71205909125647     -1.30317392242592     -0.25056047723499
  C   6.61194659170918     -0.52510391148745      0.52828169781740
  C   5.91640410671864      0.13271591840151      1.77067795499518
  C   6.11790735722329     -0.86314371744190      2.95764360851770
  C   6.87113321920071     -2.08942306622968      2.36505116410959
  C   7.63842372038405     -1.50953799993295      1.15302959308071
  H   5.35454586679222      0.14613030744022     -1.71692712005828
  H   4.27146204608114     -1.26174732159107     -1.68938094245101
  H   4.08741443357514      0.01300647106838     -0.46987388586974
  H   7.09847771946526      0.22928575534890     -0.09749862514049
  H   6.37727575835014      1.08889689448989      1.98891263067015
  H   4.86623815958515      0.31211346625827      1.57104557075966
  H   6.71260965143096     -0.40117926371714      3.73720621275286
  H   5.17417185250678     -1.15495320828719      3.40065956063764
  H   7.52513039599454     -2.56119820678804      3.08898511039296
  H   6.16027448153062     -2.83137596958868      2.01755562184670
  H   7.94707830995046     -2.26532166333099      0.43965931387848
  H   8.51522948649540     -0.96290680453181      1.48337295911318
