44
Coordinates from ORCA-job dimer_006976/dimer_006976
  C   -0.03156486998695      1.35601569355152      0.38407738347280
  C   0.62005514540928      0.01068375947841     -0.00422762828988
  C   1.73355759830777      0.13566774296633     -1.08529613664937
  C   2.64422296698736     -1.04652067843317     -0.75361059796648
  C   2.39830413993616     -1.53564171799710      0.43602809186995
  C   1.29167885873051     -0.77355101332643      1.17192176730503
  C   1.93814733162169      0.16714658919959      2.22589866628825
  C   0.28307203960906     -1.71774050887557      1.87319036075701
  H   0.71180899736553      2.06524863959264      0.72696010635273
  H   -0.53770625001579      1.78719092450211     -0.47321906763615
  H   -0.76251417357055      1.21702307130630      1.17321997536883
  H   -0.15063542317152     -0.63495629283265     -0.40816724463481
  H   1.32940759583038      0.08857067991304     -2.09105151767122
  H   2.27340746192119      1.07471897817416     -0.99676821345545
  H   3.40459672440259     -1.39117291367493     -1.43720435999557
  H   2.92067819051033     -2.35200561413872      0.90902656587113
  H   2.60937283008381      0.87194389050085      1.75017745887215
  H   1.17895643009449      0.72136411590390      2.76471683618514
  H   2.50533813813637     -0.41498186162531      2.94343053311257
  H   0.76917322395596     -2.27211311013657      2.66823697115110
  H   -0.53066062900927     -1.14588775652065      2.30527772295384
  H   -0.13235572578681     -2.42596445271057      1.16542783611801
  C   5.39611881144697      1.10188290750667     -0.34606764979926
  C   6.29703515641766     -0.14301014325443     -0.19883114104418
  C   7.59607815675311     -0.09040964064135     -1.05554960632383
  C   8.56380812524707     -0.94250528935427     -0.23369999419277
  C   8.12704831527355     -1.14106928807165      0.98503291588423
  C   6.78991864850589     -0.44407730197178      1.25528142395994
  C   7.05252593690648      0.84776166709973      2.07731614779629
  C   5.78774182912409     -1.34663746115191      2.01686836962215
  H   5.93836798508491      2.00749598221613     -0.10342610566588
  H   5.03808547781082      1.18589383999571     -1.36653252328276
  H   4.53463467389354      1.02904412947934      0.30777413127082
  H   5.73109971453892     -1.00877583536113     -0.52028953028282
  H   7.43793728044448     -0.47690026792209     -2.05693633244610
  H   7.96744042289987      0.92618946107768     -1.15590860991347
  H   9.49886067025184     -1.29795692397484     -0.63884938739889
  H   8.63847543418587     -1.68502411862519      1.76358528900564
  H   7.70952207113939      1.51837372116427      1.53626970301770
  H   6.12415254965744      1.36469177570928      2.28884470367767
  H   7.52385918161145      0.59671021261121      3.02080958933945
  H   6.15304554117086     -1.56700738305103      3.01361331311906
  H   4.82883272952627     -0.84878278742226      2.10516434311413
  H   5.64056368674733     -2.28196542087526      1.48954144116316
