36
Coordinates from ORCA-job dimer_004840/dimer_004840
  C   2.18485565340790      0.84940809630650      0.08872260329255
  N   2.77253524418476      0.79252506423765      1.43188356287099
  C   3.04753619545820     -0.47180599474530      1.99263320196461
  C   2.86626939779595     -0.93606034115420      3.25792309598380
  C   3.40867837306243     -2.26788417918458      3.29426677456292
  C   3.88760642884086     -2.55527817644664      2.06245644303432
  C   4.57572613166836     -3.79646145691533      1.53226226955603
  N   3.66063510166014     -1.45563482688405      1.25600135790499
  H   1.19219874706226      0.39186807042290      0.03021911242056
  H   2.10364897937204      1.89140241233729     -0.22169311562088
  H   2.83278438015930      0.34190055824708     -0.62496194420243
  H   2.34283912029486      1.42197932422759      2.09461192107199
  H   2.40102596419060     -0.40921176294537      4.06686128491614
  H   3.42043274136724     -2.92333268920385      4.14423436791784
  H   4.01206673802234     -4.24048969850454      0.71467178109580
  H   5.57628751567079     -3.56374734445414      1.17103483896598
  H   4.66115833763394     -4.53054169881450      2.32644355433086
  H   4.06750467065761     -1.32072881548712      0.33637295363884
  C   5.72884322839432      1.03009728059086     -0.31421604693003
  N   5.95514650355595     -0.42048848892590     -0.43656156067762
  C   6.73117715692134     -1.04445697798350      0.56977704184932
  C   7.73963778823774     -1.95177232091880      0.47426712834797
  C   8.09216370576139     -2.32710595916581      1.81670082068877
  C   7.29670128668370     -1.63343994628893      2.66376155490092
  C   7.20516281002785     -1.63569496010980      4.17605706605910
  N   6.46740810504776     -0.83630204626085      1.90040441764755
  H   6.65737281384636      1.60235433697872     -0.23316011881215
  H   5.18503725820780      1.37937565921028     -1.19123828213078
  H   5.11081512660260      1.24226588490500      0.56013815250736
  H   6.26139552239762     -0.69818612913149     -1.35977046571477
  H   8.17954723130156     -2.31913315148496     -0.43153444931575
  H   8.85302862852085     -3.03030550695327      2.09815085408221
  H   7.45744949459423     -0.66159742827906      4.59039162904963
  H   6.19695928649513     -1.89046496847758      4.49947668966169
  H   7.89417972498540     -2.36876354370384      4.58270385814156
  H   5.70765160790723     -0.27785227504015      2.26486364693961
