44
Coordinates from ORCA-job dimer_009553/dimer_009553
  C   1.64155057932102      1.67982463874040      0.75235966116073
  C   1.72699523710070      0.23964559187118      0.18159149618544
  C   1.82658683940379     -0.84090517327767      1.29823474736200
  O   2.93075079371692     -0.62788925974711      2.15579461292532
  C   0.43427254816800     -1.11042257010195      1.99109977653000
  C   0.26850944181033     -2.37978622529712      1.09566124890377
  C   1.79168912742045     -2.31310949739529      0.74678243792062
  C   2.22805749276479     -2.58852145466806     -0.70424475822051
  H   2.56809856789175      1.96136513951291      1.24088430792075
  H   1.46281343219030      2.39126555945946     -0.04728892047590
  H   0.83129756700041      1.76851444161179      1.46838677399389
  H   0.84730391517461      0.03367288027173     -0.41753353778067
  H   2.59091529533895      0.15749782213395     -0.46864049112575
  H   2.82403556120072      0.21714092319543      2.62871738019376
  H   0.55265696733047     -1.36052704324990      3.03931957095484
  H   -0.31588776079922     -0.33675698436399      1.88862406133176
  H   -0.07167869299590     -3.28039900945186      1.59195268512997
  H   -0.35913854544941     -2.19790005835492      0.23153572976231
  H   2.35824087427265     -2.93917463085947      1.42844171169570
  H   1.63595413555292     -2.01634353620023     -1.40840491618030
  H   3.27322604024697     -2.33219586523559     -0.84593356854368
  H   2.10311216575727     -3.64167453809341     -0.93606256949218
  C   5.52523275175545      1.36971927510007     -0.39776582267116
  C   5.58140829397927     -0.10266470058860      0.09031299938449
  C   6.84922442333539     -0.40768088521016      0.93910448172147
  O   8.04726639522502     -0.21441082691477      0.21224543626131
  C   6.77673778518839      0.24871378063061      2.37404461459088
  C   6.34318611581945     -1.13522310907753      2.95350050037559
  C   6.81360695320384     -1.82041918826025      1.62942425636789
  C   5.92937406103784     -2.93037905158071      1.03192637501693
  H   6.32178455929823      1.58523253065775     -1.10141558075350
  H   4.58394424784869      1.56460750152951     -0.90050936151400
  H   5.60883997338091      2.05895205614500      0.43523532093828
  H   4.70777351306204     -0.31747810474437      0.69793863578402
  H   5.56293495511261     -0.77029479779598     -0.76416459997988
  H   8.09345089442699      0.70453513040108     -0.10752745683313
  H   7.75681094764998      0.55395275067331      2.72195230548929
  H   6.08150104711051      1.06828397309860      2.49738385667104
  H   6.83737439999054     -1.45535263027550      3.86211731334876
  H   5.26901860827707     -1.20845709750242      3.08523679685734
  H   7.83594515718995     -2.17049637842169      1.72609477448433
  H   4.89154637483639     -2.62078533169282      0.99697975513787
  H   6.25361461384707     -3.18055507115787      0.02697678197400
  H   5.99317534600497     -3.82533097551333      1.64246717719606
