36
Coordinates from ORCA-job dimer_006465/dimer_006465
  C   0.09232264980048      1.58986584260778     -1.17204140167512
  C   0.31177727191919      0.05538136417073     -1.15655463126780
  C   -0.01230011835701     -0.57404087652670      0.22298678141315
  C   -1.46480428200226     -0.32538835505166      0.69356211281524
  C   0.50318970784585     -2.04798809923640      0.39434736257592
  C   1.48497698688934     -1.40087139795134      1.42322174053577
  O   2.37817400581744     -1.73072539688696      2.13975832629920
  O   0.95174014836666     -0.13226731506099      1.23422999617108
  H   0.47746067557499      2.01294614183533     -2.09420151820124
  H   -0.96060811545000      1.83760395523482     -1.10133158539721
  H   0.61137531804361      2.05304236713421     -0.33861249874550
  H   -0.30973354663215     -0.42312783607771     -1.90785175520937
  H   1.34872504285260     -0.17173301657001     -1.39353029725464
  H   -2.16215449800208     -0.71319029167981     -0.04301734357859
  H   -1.64568057651637     -0.81955108242800      1.64272260787907
  H   -1.64349376162496      0.73742261320802      0.81909186400091
  H   -0.20352400286353     -2.75109076592012      0.82759016059582
  H   0.98943447443934     -2.49489142915319     -0.47122152017275
  C   3.85747240342101      1.70606376994017      0.55060341246038
  C   4.63046405826060      0.44742585798014      1.01923938680549
  C   4.87408396663194     -0.55920819631787     -0.13404035988010
  C   5.72842362003342      0.02691490088782     -1.28549554159825
  C   5.29967172466138     -2.00359026737723      0.31700027347479
  C   3.94968800897796     -2.42385110917617     -0.34712261164708
  O   3.32914554906687     -3.41231717686611     -0.58205133539007
  O   3.61854006338347     -1.10732377915180     -0.65651633332783
  H   3.60391514365995      2.32372490663158      1.40619561970770
  H   4.44801229764142      2.30198022580191     -0.13560543193082
  H   2.93511060054185      1.41526420821328      0.05838863746354
  H   5.59514598455721      0.72664217790156      1.43287001688438
  H   4.06729164290227     -0.05275170267280      1.80273523203743
  H   6.68329506896953      0.36935363462876     -0.89833980248270
  H   5.90776345002532     -0.72493335662047     -2.04731380979956
  H   5.21604967431153      0.86646971244039     -1.74343762922248
  H   6.19480666755786     -2.41489586865540     -0.14180963717646
  H   5.32016369529453     -2.16472035923569      1.39326151283769
