40
Coordinates from ORCA-job dimer_007981/dimer_007981
  C   1.51143880563537      1.53785714500444      0.62443158274819
  C   1.73421855323458      0.00880408178715      0.55754885064708
  C   2.06004032292734     -0.49953095052670     -0.87576925366484
  C   2.68395093406637     -1.89866101644665     -0.65773741766839
  C   3.56388166868760     -2.42305263285693     -1.81438214902387
  C   3.47950149490219     -1.72816394376415      0.67011615614912
  O   4.38463819479911     -2.42977156275034      1.03413967357477
  C   2.93480162048266     -0.47469523455917      1.41441712109536
  H   2.39620369589475      2.06387869894162      0.28247344310679
  H   0.67663120302715      1.82953517193391     -0.00467547855668
  H   1.29880124771312      1.85169773537923      1.64137416202833
  H   0.83674827704758     -0.49422172626405      0.90165498809054
  H   1.17934610297060     -0.53267499345043     -1.50595016529223
  H   2.78230318859012      0.15855378099469     -1.34532061912327
  H   1.88875955359889     -2.61488836116189     -0.46019671366252
  H   4.34260351888285     -1.70897876074504     -2.05823596061487
  H   4.03405424216952     -3.36061998462153     -1.53213417463420
  H   2.96321482028170     -2.58973049204282     -2.70295005351746
  H   3.71535437553347      0.28015610512098      1.44848510882986
  H   2.66508870480254     -0.71235066056782      2.43906194996333
  C   6.39064524050215      1.68708513449368     -0.74307871031070
  C   6.32224102569707      0.18572460798143     -0.37642106630283
  C   7.19771518970414     -0.71281482425459     -1.29535268669750
  C   7.35866130041420     -2.03601801178453     -0.50919965880230
  C   8.58318597451663     -2.89329509978619     -0.89965796834235
  C   7.41523123458177     -1.56512820104422      0.97349886243629
  O   7.87456041838402     -2.19235071579098      1.88898475716997
  C   6.82951278588647     -0.12482049525703      1.05673919415398
  H   7.41048665336463      2.04870638314657     -0.66978752365145
  H   6.04478813589604      1.84873792384310     -1.75884111068964
  H   5.77217590194750      2.27595440194564     -0.07361787678787
  H   5.29574748309554     -0.14618315159995     -0.46130327880055
  H   6.74670841006837     -0.86120983423606     -2.26889410357918
  H   8.16698259043455     -0.25131934534208     -1.44515393144490
  H   6.45241772094836     -2.62980574599050     -0.61396548241362
  H   9.49714625068955     -2.31483331642798     -0.81823697179704
  H   8.66203266417837     -3.75104163024600     -0.23796945006104
  H   8.49122250179051     -3.24811858903063     -1.92106637844361
  H   7.62296083951736      0.55939081740324      1.34526535893082
  H   6.05334352313439     -0.06622698042731      1.81274543195857
