38
Coordinates from ORCA-job dimer_005269/dimer_005269
  C   1.68426281492119     -0.23755295724280     -2.62209428128256
  C   1.46410887348394     -0.84389400101055     -1.21134888617554
  C   2.79935580031871     -0.88416985737137     -0.41149796759027
  N   2.61507918089593     -1.45966535783370      0.91880863065514
  C   2.25644716595552     -0.76996832138783      2.04826634517668
  C   2.11877668447888     -1.65508585883286      3.07021050665697
  C   2.39537564984986     -2.95573186823298      2.53923243783446
  C   2.68667234297339     -2.79442223165639      1.22136029460361
  H   2.40592804993619     -0.82494795654201     -3.18085542193563
  H   0.75367445200331     -0.21777923604523     -3.18014832265406
  H   2.05938002059288      0.77795790161841     -2.54812107623770
  H   0.73499360815706     -0.25862397355295     -0.65923012249578
  H   1.07288084909416     -1.85341268345739     -1.29418921184233
  H   3.54203410776093     -1.47698797324340     -0.94705497353095
  H   3.20132443453227      0.12265639632007     -0.30363538765340
  H   2.13248698789361      0.30029022000814      2.02803089429327
  H   1.84978916110938     -1.42305658652540      4.08394139405102
  H   2.37326086020508     -3.88387467008754      3.07940783337845
  H   2.94573873253411     -3.51792336802316      0.46547096113380
  C   5.20954673649112      0.47283667661543      3.95679662249461
  C   5.53544499298565      0.28361473729973      2.45259827294598
  C   5.79429412351503     -1.21395346071108      2.14357293949621
  N   5.93849992642768     -1.47648675538251      0.70845682596159
  C   5.81786775085402     -2.71977418907550      0.14092956606724
  C   6.04176801554999     -2.61294389453870     -1.19508107107357
  C   6.32087099606354     -1.23535519220461     -1.46280816341696
  C   6.25200074127590     -0.57499627716880     -0.27684112831064
  H   6.02508258321508      0.11143202330296      4.57457202371002
  H   5.04939486773391      1.52198155575753      4.18285499157090
  H   4.31060865511428     -0.07676195887277      4.21815791018650
  H   4.70647495595486      0.63466035873987      1.84790487624890
  H   6.40970330245743      0.86960029621835      2.18878914189880
  H   6.69567296300157     -1.54292806416201      2.66720016675452
  H   4.95892493235355     -1.81070908749572      2.51478202930153
  H   5.57958311498346     -3.57967228433478      0.74556533908574
  H   6.01693123303866     -3.41225672775690     -1.91218757162603
  H   6.54325183967827     -0.80174085195075     -2.41996565247052
  H   6.39925254860815      0.46876378181956     -0.06028277921033
