40
Coordinates from ORCA-job dimer_006218/dimer_006218
  C   -0.21308270770519      0.75375353617286     -0.53343114037236
  C   -0.02089872928145     -0.47573842301725      0.40368484506952
  O   -1.25136036578875     -0.85615862133770      1.01152369661453
  C   0.66508519737394     -1.65723708492044     -0.36029990479737
  C   2.17981599148716     -1.31800258232160     -0.35105546560699
  C   2.40584124738185     -0.30561914546564      0.84119956536772
  O   2.83117527939295      0.97300363452152      0.39322114164234
  C   1.01104197688116     -0.15940393779863      1.52142932277680
  H   0.74806099670804      1.08802393561605     -0.90983583701929
  H   -0.85202497096856      0.50194561717832     -1.37273255352201
  H   -0.66595754493645      1.56948066581230      0.01953439023840
  H   -1.92044351489261     -1.00068337936606      0.31767792397475
  H   0.47854144795408     -2.57265882024945      0.19068893619463
  H   0.27598030804506     -1.78266049533633     -1.36303501797893
  H   2.78310885447721     -2.21016176736263     -0.23456337332217
  H   2.47690792304744     -0.84224520789577     -1.27911424434889
  H   3.12350840303526     -0.72257154695077      1.55517273160030
  H   3.69184773419991      0.88854235603491     -0.07073733845581
  H   0.88109861528188      0.83179440438723      1.93962879061095
  H   0.89589509192709     -0.89066962335990      2.31461903023347
  C   6.63008460233168      0.57128449135928      1.26958166981800
  C   6.36490768922268      0.00757009997600     -0.15773478967494
  O   5.37459081950175      0.78234484611569     -0.83311881608038
  C   7.68998149080902     -0.10647794115723     -0.97858421600664
  C   8.35277423726856     -1.41597441608820     -0.47753131007583
  C   7.18388943041842     -2.31139678748929      0.09323872967901
  O   7.34445373482137     -2.58768189006552      1.48359504711872
  C   5.88564627743721     -1.46927251817397     -0.09073232324551
  H   7.30759995918744     -0.08231206570072      1.80913765186382
  H   7.06645067815834      1.56305290097296      1.21725804065524
  H   5.69761735239215      0.62909156561967      1.82234729845282
  H   5.69347089314848      1.69748880434909     -0.94279397957358
  H   7.43667161204195     -0.18830386677523     -2.03056947922995
  H   8.33260218507522      0.75638813710226     -0.85067924004752
  H   8.89267958983010     -1.91882788345938     -1.27176667970047
  H   9.05880854330899     -1.20618722267226      0.31874211400613
  H   7.10652865318021     -3.24488029580563     -0.47405033569224
  H   8.12595661874229     -3.15677890894029      1.61258773015105
  H   5.19106436152757     -1.64832348193811      0.72153250919862
  H   5.40007521397635     -1.72189766057013     -1.02785791951591
