38
Coordinates from ORCA-job dimer_002299/dimer_002299
  O   0.10888926096269      1.82919872327935     -0.13579690896430
  C   0.97743661970493      0.73174087439686      0.14785359000872
  C   0.11392416460633     -0.55820549256697      0.25389168219923
  C   0.98215769871688     -1.77485440406015      0.63263820645898
  C   1.57971758251931     -1.79475269441696      2.08025029454274
  C   1.08729297349218     -3.27165930945169      2.24737622413019
  C   0.24026542771645     -3.11922626244302      0.93920912267265
  H   0.63400706324562      2.64963758982502     -0.18857050222358
  H   1.72826559274020      0.60047284235936     -0.64110087726868
  H   1.52180794926869      0.88081103155168      1.08898840693342
  H   -0.65613701767683     -0.40458587512824      1.00264092275221
  H   -0.38372207502796     -0.73225352763829     -0.69548205063313
  H   1.75399792403822     -1.91988472020757     -0.11225147752318
  H   2.64609082346834     -1.62570418352218      2.16616987056079
  H   1.06698697541239     -1.10899748479976      2.74406701090921
  H   1.88634680015299     -3.99705858958967      2.14767157062471
  H   0.53243384679359     -3.48906667969274      3.15225933864642
  H   -0.81492632382462     -2.97371738584012      1.13795029046064
  H   0.35052645401812     -3.90423592860463      0.20088030163487
  O   5.27964439858686      0.56302388520139      1.78974766695718
  C   5.60297814197245     -0.67970447548512      1.16450511073088
  C   4.76099614165416     -0.79658053120582     -0.13743751386162
  C   4.98849059867931     -2.15197746613647     -0.83829245859361
  C   4.46574988528200     -3.42646143967997     -0.09091522386281
  C   3.69139280468426     -3.85800653220127     -1.38127977963586
  C   4.03924055601276     -2.48086993544130     -2.04084043719194
  H   5.80487418347487      0.66223523017570      2.60573789170689
  H   6.66947575868207     -0.74062271335594      0.91449935867482
  H   5.37445686210636     -1.52970627858246      1.81921155664299
  H   3.71381942971758     -0.68320817099734      0.11754109103061
  H   5.02453082819497      0.01822427659100     -0.80507151642573
  H   6.03181639781919     -2.25111233934666     -1.11360434047981
  H   5.22713715476038     -4.11548444404739      0.25392837942690
  H   3.81062027245618     -3.19086369449293      0.73791690529099
  H   4.14309278072087     -4.70170919453074     -1.88992116226977
  H   2.63538638920554     -4.06058099990947     -1.24697072762189
  H   3.19081313722964     -1.81012056264857     -2.10452421430748
  H   4.51396586143156     -2.53010326335598     -3.01352538313286
