40
Coordinates from ORCA-job dimer_009955/dimer_009955
  C   0.54365060728833     -0.06512929009121     -2.00417285130268
  C   0.60115043889160     -0.36804846355808     -0.50488950417315
  C   1.70825759176015     -1.25604504983156      0.07029820412606
  C   2.77358038429782     -1.87903951274718     -0.83610438728463
  C   1.71774524786497      0.24184951100631      0.35285978115586
  O   2.70675405113252      1.00876297423949     -0.28231475716083
  C   1.37857929485104      0.77051579994408      1.76486966627314
  O   1.04316644759893      2.14889604953862      1.59385618500435
  H   1.52572920926416      0.19239225955254     -2.38462221892808
  H   0.17557157361590     -0.92668592711699     -2.55395251360049
  H   -0.12391715201461      0.77055906528015     -2.19304401114934
  H   -0.36473618492559     -0.44579001424237     -0.02901028561522
  H   1.42551329813563     -1.88125710892202      0.90505158146993
  H   3.12254591720211     -1.16792496036096     -1.57445544126232
  H   3.62269286833986     -2.19924161785769     -0.23572123285143
  H   2.36563450783989     -2.74352313599345     -1.35151654395036
  H   2.39869840267347      1.93706315815287     -0.30564155831923
  H   0.55026853339608      0.18914606602983      2.18857945706218
  H   2.24950420244445      0.64827427402297      2.42348587614022
  H   0.92331672528830      2.57264135784809      2.46391655046224
  C   5.67283241148167      0.84217663356707     -1.81872216258110
  C   6.38539744221576     -0.09468520736120     -0.83857212676751
  C   7.38127673983844      0.46692557483972      0.17915707417932
  C   7.65443446425991      1.97096623279932      0.26009600154427
  C   6.03531449299028     -0.09070597071055      0.65488874525640
  O   5.07352790019866      0.78861321415639      1.15583090233049
  C   6.06495945197953     -1.42713126995068      1.46213480212159
  O   4.75106174932473     -1.81488697608995      1.84803526984920
  H   5.38353815010020      1.77029885037829     -1.34055742575636
  H   6.33008048521276      1.08143313326604     -2.64983321438433
  H   4.77764100533735      0.37327100292400     -2.21557000542627
  H   6.62951363580728     -1.05941429047997     -1.25712056133129
  H   8.24035832773994     -0.15293464381625      0.38577424434231
  H   6.72485179004520      2.52567315091832      0.32158053544646
  H   8.23517614380064      2.19576828831457      1.14952978508347
  H   8.21109626832531      2.31308819633654     -0.60750965668277
  H   4.29965582683453      0.85415785577644      0.55137752533370
  H   6.49743742902159     -2.22853486472975      0.85670677769974
  H   6.70710432543001     -1.29170693534436      2.34275791659134
  H   4.29110626111058     -0.99959779968748      2.12950635405510
