40
Coordinates from ORCA-job dimer_007583/dimer_007583
  C   -0.90019393488689     -0.46787002976883     -2.54811842027947
  C   0.40411715531576     -0.22745919256457     -1.72538683817158
  O   1.03174605019732      1.00328782594866     -2.06222647818965
  C   0.13863659929640     -0.34199917390403     -0.18223394859431
  C   -0.87878750649101      0.69928387856704      0.34827530600580
  C   -0.09544894763477     -1.81224240969313      0.31019499903148
  C   1.25613222755530     -1.62740870357752      1.08173248381785
  O   1.38456503145803     -0.28125251576876      0.55607738716234
  H   -0.66199980393869     -0.51279065009578     -3.60624656073811
  H   -1.36815090622454     -1.40247365961167     -2.25714631427995
  H   -1.61144573300557      0.33550272183010     -2.39162395593675
  H   1.12713455802376     -1.00753263471956     -1.97931963417170
  H   0.41011513583694      1.73912399342675     -1.91308596375465
  H   -1.85861419168422      0.53659941674804     -0.08776142981692
  H   -0.96127328305844      0.60652798783098      1.42645767727813
  H   -0.55283119741996      1.70944476797359      0.12340421956790
  H   -0.97197254406469     -1.95490349331825      0.93142248296358
  H   -0.07997511382539     -2.56341687433129     -0.47088061473278
  H   1.17924427958596     -1.64175573677548      2.17442321664398
  H   2.08649274252756     -2.27762752171279      0.77563698226892
  C   5.56285606178480      1.42565309987397      0.59382810334501
  C   5.04958972483140      0.05920459394563      1.15355069069120
  O   3.82488576586122      0.19510552057196      1.84928518137102
  C   4.99127453504475     -1.02129748262932      0.01151016636135
  C   4.18137309634065     -0.56983172110680     -1.22938188261364
  C   6.38939994348884     -1.65632343531607     -0.31112483054679
  C   5.79059707633411     -2.95824689419139      0.31892966062545
  O   4.52112442943103     -2.29551151035279      0.53211146228769
  H   5.74061973653152      2.11100300522105      1.41582532532822
  H   6.48781912256821      1.29379284925026      0.04294309536548
  H   4.82552222928742      1.86853125818996     -0.06620557493404
  H   5.77159916221035     -0.30295859997646      1.89027204398772
  H   3.07406753278374      0.31325200727983      1.23262681239446
  H   4.71653595966704      0.20678346390454     -1.76422494316820
  H   4.04335055308044     -1.41283163079498     -1.89733996180765
  H   3.20478284158804     -0.18700940945296     -0.94811234981458
  H   6.62371712200759     -1.72509893366257     -1.36685749577609
  H   7.23015114638502     -1.22339754055826      0.21781412577617
  H   5.71346444744650     -3.81747403479702     -0.35531055369522
  H   6.26006089576414     -3.28276460188203      1.25376832874836
