48
Coordinates from ORCA-job dimer_009679/dimer_009679
  C   2.10907737526444      1.09024262646945      0.99036604051767
  C   1.22852167702263      0.24021275747994      0.03395324243699
  C   2.09403897135232     -0.66181569849903     -0.85155152580180
  C   2.54280014746071     -2.03131680359206     -0.35495105011085
  C   1.55633763043026     -1.92600874121779     -1.51287889893967
  C   0.10050855766801     -2.34532430550356     -1.28528651413243
  C   2.09789658992876     -2.24663963921875     -2.91483939430491
  C   2.11998170565280     -3.77029744949281     -3.20871134699904
  H   2.70179279663518      0.44426213399302      1.62911727136748
  H   2.78691957330392      1.72080417364180      0.42550063233589
  H   1.49410233445300      1.72556007496269      1.61930394770902
  H   0.54200691221103     -0.35866071217761      0.61976392486153
  H   0.62905377779803      0.89584814004923     -0.59120491639092
  H   2.82016096477369     -0.11564768125592     -1.43136182885129
  H   3.55042017752110     -2.35021401650176     -0.56754170846846
  H   2.16796790450640     -2.36314377529118      0.59945443827151
  H   -0.22271280036801     -2.12380121191761     -0.27628518029490
  H   -0.55536569342601     -1.82550843999560     -1.97669217085478
  H   -0.01500621901772     -3.41184319910971     -1.44444208809129
  H   1.49214672385831     -1.73933382498571     -3.65956929262328
  H   3.10458108304318     -1.85394087489634     -2.99770084503374
  H   2.63218257294175     -3.97080206382667     -4.14392181446667
  H   2.63608666929624     -4.29918689586620     -2.41516511707356
  H   1.11440181667141     -4.16742153430005     -3.28325241882950
  C   5.61515446601324      1.56454650475360     -0.71619519391838
  C   5.70527357729656      0.06577227768421     -0.32059326630564
  C   5.89175873589989     -0.81411020963768     -1.56097599138188
  C   7.29189254309757     -1.13343512176085     -2.07300045061115
  C   6.42659112350061     -2.23979183846877     -1.47999279906897
  C   6.80557475193579     -2.82941495741469     -0.11758333694010
  C   5.83580885665157     -3.25829776699667     -2.46808085590864
  C   6.87355203186848     -4.32364681005006     -2.91085679544732
  H   6.51846332861434      1.87337165466717     -1.23164077089960
  H   4.77357268262925      1.73321915473019     -1.37917445359563
  H   5.48885895807292      2.18906941977346      0.16210982796717
  H   6.53407885201979     -0.07372527013987      0.36254046584434
  H   4.80101957965270     -0.22939920593655      0.20335934894448
  H   5.14345933944716     -0.64590333952843     -2.31823253156001
  H   7.46664999115324     -1.13651139278032     -3.13681538434700
  H   8.12812692998725     -0.77811648393484     -1.49323615199060
  H   7.26233382374763     -2.08565365326501      0.52273026320033
  H   5.92438011522987     -3.21731040488798      0.38413942921882
  H   7.51228284716315     -3.64288647031621     -0.23980830127201
  H   4.98157829166416     -3.74849645127688     -2.01260631414265
  H   5.47231889615605     -2.73211026286559     -3.34346949893175
  H   6.44918279316497     -4.97744106072854     -3.66572561633991
  H   7.75223836914155     -3.84285144272912     -3.32703446196627
  H   7.18615874090917     -4.93538226483768     -2.07273358778008
