44
Coordinates from ORCA-job dimer_006890/dimer_006890
  C   -0.08630672750305      1.26919274401094     -1.33770992416314
  C   0.45034207696534     -0.02951025574572     -0.72624705453543
  C   1.91804997486263     -0.44081307220406     -0.84164870509057
  C   2.94184630719237      0.42500735282068     -1.59813559116026
  O   2.91125242327477      0.18212480240915     -3.00539692780131
  C   1.34100218401380     -0.03551741545794      0.51263164778534
  C   1.74985208653408      1.28349162018504      1.17903758150875
  C   1.11101422909021     -1.16357738617674      1.52995597325895
  H   0.65887538100828      2.05412266051466     -1.35150661342397
  H   -0.41753694998953      1.09947834421018     -2.35813484262620
  H   -0.93823518694774      1.62704915676127     -0.76654695174796
  H   -0.25773933802848     -0.84193925157452     -0.78094261201366
  H   2.09860414114642     -1.49640773732470     -0.97324880968898
  H   2.79079827516587      1.48566440878386     -1.37786426672078
  H   3.94854984102378      0.16704791469746     -1.25830326356463
  H   1.99326427728526      0.28051816759358     -3.32033978185690
  H   1.91036205858582      2.08051306665630      0.46553773837027
  H   0.97321292409200      1.60114681620109      1.86810479359119
  H   2.66505892187872      1.14514007786919      1.74650802001211
  H   2.01700217165501     -1.35434398209717      2.09716773240003
  H   0.32557557974112     -0.88887461075999      2.22739033148314
  H   0.82039050309001     -2.08117073112191      1.03104160233107
  C   6.72073227649801      0.47905646936397     -2.22061214274259
  C   6.60649014242134     -0.52519979248187     -1.06787701673746
  C   7.62355046958080     -0.57473539328442      0.07217842857796
  C   8.81443187320816      0.40074301513087      0.12512749577274
  O   9.89486449077539     -0.03399363196633     -0.70186796887001
  C   6.19157012111745     -0.12355584028447      0.34644091885468
  C   5.89113917503294      1.33967896845678      0.69417365907152
  C   5.29856893197377     -1.10759000852883      1.11829396557292
  H   7.11151494907939      1.43469921946752     -1.89609270856614
  H   7.37807151817526      0.08994209125979     -2.99266478685636
  H   5.74611605421562      0.64680249463856     -2.67262943933339
  H   6.23642408638949     -1.48639567577533     -1.39070049822422
  H   7.88124209875892     -1.55934996716522      0.42993590408790
  H   8.49540677749804      1.41333836323199     -0.13998574778316
  H   9.20141049406532      0.44439568276939      1.14843485244743
  H   9.55092761514227     -0.20635071131842     -1.59835573793056
  H   6.41018760825342      2.03686571163266      0.05050741736643
  H   4.82610566189368      1.52303391875672      0.60107992427934
  H   6.17776077944198      1.54512977759351      1.72114745264870
  H   5.43688899203147     -0.98349524464466      2.18791641552890
  H   4.25206791984751     -0.93368386987592      0.88827455802425
  H   5.53928438846255     -2.13241552122695      0.85961134246408
