42
Coordinates from ORCA-job dimer_007555/dimer_007555
  C   0.62577559647377     -0.07979829241606     -3.61669687404722
  O   0.98789914019441     -0.95138781248818     -2.55588630151563
  C   0.25319342458861     -0.72774193802114     -1.35674286780175
  C   0.78873030820010     -1.69155888696583     -0.28240626211442
  C   0.79680487470068     -3.16334929421699     -0.72274311176256
  N   1.88584762229200     -1.17684023400165      0.55084902662898
  C   0.57547134511098     -1.38664518485451      1.19105159756415
  C   -0.19117260583245     -0.15316953458790      1.69125196945123
  H   1.23398526303335     -0.34222828649419     -4.48783353531860
  H   -0.43272066115945     -0.17987428425299     -3.88995930119995
  H   0.81485915404700      0.97215060964401     -3.36619091696580
  H   0.37110135314895      0.30531201731448     -1.01461235221382
  H   -0.81757286926818     -0.90753053244644     -1.51852071719318
  H   1.34684691208388     -3.26699821955060     -1.65291344773854
  H   1.26711761939488     -3.78430482365052      0.03221113839197
  H   -0.21718058316240     -3.51682767622494     -0.88309619442908
  H   2.58888033221910     -1.89190383735502      0.77923408115625
  H   0.45745950313929     -2.25817030776483      1.82460670517151
  H   0.07454422660496      0.72446783199679      1.11394181296136
  H   -1.26371675002570     -0.30852338793392      1.61893606529461
  H   0.05571891803329      0.04164441616174      2.73087876236113
  C   4.30172719740844      0.82904214232225      2.24228332400875
  O   4.95781833378969     -0.42099615160668      2.07431002688681
  C   5.15121066776911     -0.78429961760571      0.71150434596978
  C   5.39162704682007     -2.30437142933647      0.66801600104274
  C   6.62408783848200     -2.75602117938522      1.46573929444621
  N   4.17418773718501     -3.13962938817549      0.70541245092707
  C   4.96936722670911     -3.11936881680166     -0.54271544676831
  C   4.33621316726454     -2.50188795616763     -1.79842895068681
  H   4.17765640202320      0.99680581069780      3.31630198542678
  H   4.88626993269568      1.66000369555327      1.82695743245359
  H   3.31035975422280      0.82769516297906      1.76769677662334
  H   4.27488560649511     -0.52809579766164      0.10833972757537
  H   6.01873784086651     -0.26310405148085      0.28650812746107
  H   6.53465834546622     -2.42342097488615      2.49685527807359
  H   6.72640233336551     -3.83588934504120      1.44982820994334
  H   7.52437199925169     -2.31992307506337      1.04309707877831
  H   4.29339292713008     -3.99466212177401      1.25005201788505
  H   5.58867143655585     -3.98623812277753     -0.74550365153387
  H   3.58971563165735     -1.75642802074424     -1.54133954037650
  H   5.09826646271233     -2.03684206437509     -2.41719814901736
  H   3.84583298831106     -3.27307704055989     -2.38495961579958
