36
Coordinates from ORCA-job dimer_005637/dimer_005637
  C   2.12458340372208     -1.51151011067330      0.86189017843941
  C   1.69165704382382     -0.98485328190613     -0.53699959200891
  N   2.48294690009374      0.16872284893467     -0.96121314413850
  C   2.31215710205596      1.46783949031211     -0.53919613062271
  C   3.26905512741610      2.19993689285350     -1.16401051946896
  N   4.03877105322672      1.36940484581842     -1.96501911796108
  C   3.55475300057586      0.16977124954838     -1.82183625834075
  C   4.05580470515137     -1.08798517410130     -2.50502539392526
  H   3.17838422897364     -1.78433680466133      0.85437042106819
  H   1.97408727254870     -0.74462309881748      1.61417173422673
  H   1.53161538466300     -2.38099370061743      1.12850724157310
  H   1.80688970038415     -1.76889485500857     -1.28477415239795
  H   0.63906860202754     -0.69621498727030     -0.52399858994164
  H   1.53212554479089      1.74280040063764      0.15197537580299
  H   3.45312670399598      3.25875887348303     -1.09215013501743
  H   4.31283782662010     -1.85126599576902     -1.77384576906206
  H   3.30662426811304     -1.49245853452655     -3.18248830451297
  H   4.94163024741518     -0.84010965729856     -3.08070925159925
  C   7.35092987855227      1.10954031055754     -2.60534757035116
  C   7.83913367025933      1.03498487423495     -1.12860676391785
  N   6.82894300951988      0.45561563741379     -0.24514237651927
  C   5.96260308087011      1.15762714841294      0.56036189845675
  C   5.15410600046738      0.23857864057265      1.14525483062082
  N   5.50100369554175     -1.02961351247694      0.70363546543847
  C   6.49641253560432     -0.87235485243753     -0.11997719585880
  C   7.23515232042601     -1.98073636585598     -0.84519584822431
  H   7.29175322576181      0.11801177443973     -3.03831514903936
  H   6.35934271759636      1.56048241200005     -2.64369483073654
  H   8.04385562723979      1.70151532583990     -3.19501878916135
  H   8.75489207366046      0.44569758907649     -1.05529587918477
  H   8.06255743467336      2.03647034559506     -0.76028698343755
  H   5.99976203258214      2.23270528969207      0.63314718268190
  H   4.35209194622216      0.40518816137986      1.84306644213505
  H   7.11169895100159     -1.90474875226899     -1.92253155322496
  H   8.29917538052298     -1.95467440538335     -0.62106367714769
  H   6.83580735989993     -2.93615882273002     -0.51696628764224
