38
Coordinates from ORCA-job dimer_006116/dimer_006116
  C   0.62021298848588      1.45952083572317     -0.09603153738020
  C   0.90304879078487     -0.02983004720439     -0.37616401997780
  C   2.29802895280079     -0.37289712720679     -0.95139352641152
  N   2.94929219149409     -0.01960005017737     -1.93930966595624
  O   2.59796213372436     -1.23951188966099      0.11809949427124
  C   1.34156450200335     -0.97497111051647      0.80598887371972
  C   1.58608385824316     -0.29356978362287      2.17511106711032
  C   0.49154470694538     -2.26164389830934      0.95339160234458
  H   1.44077336493202      1.92429461312861      0.43797396436581
  H   0.49078452374891      1.98447763933225     -1.03866260690060
  H   -0.28624631185671      1.57464693372101      0.49043494161366
  H   0.09586846655731     -0.45746287609797     -0.96347054886301
  H   3.90053210354283     -0.42146605938047     -2.03360826067067
  H   2.25563952115026      0.55241479107273      2.06997624877018
  H   0.64670062354552      0.05377303848758      2.59331523845069
  H   2.03073570670023     -1.00340416359337      2.86529231055569
  H   0.97613333338632     -2.95671340359701      1.63185077733267
  H   -0.48880351897867     -2.01511821207814      1.34941663484381
  H   0.36922431682864     -2.74493929364194     -0.01055936471599
  C   5.27279164671544      1.47493693184673      0.44015014997336
  C   5.51063852852199     -0.02827972550082      0.68592340775335
  C   6.09165288932263     -0.84705581778250     -0.48737744287880
  N   5.73671260080994     -1.09144529476542     -1.65384520634913
  O   7.21383390122268     -1.24162496548465      0.23711749675765
  C   6.81853339687762     -0.49866800200980      1.43302374545960
  C   7.85264717327984      0.59842393053937      1.78040979106191
  C   6.56485950087139     -1.45118722102321      2.62762837994005
  H   6.13273298250609      1.94411009286763     -0.02412622067854
  H   4.41842655284513      1.60380740356603     -0.21964097810151
  H   5.06531883929592      1.98159511964813      1.37774766346184
  H   4.61078889052881     -0.49066022317955      1.08658013881888
  H   6.37273084940047     -1.69352648863277     -2.18766947368081
  H   8.09321820919706      1.19325613306416      0.90624032351438
  H   7.45578246633636      1.25126554182453      2.55165372195616
  H   8.76546526372066      0.14037898196431      2.14851390030463
  H   7.49501367421235     -1.91326697960069      2.94382202354759
  H   6.15178473286091     -0.89243006759388      3.46199951868648
  H   5.86382165043571     -2.23084347112578      2.34623854995047
