48
Coordinates from ORCA-job dimer_007587/dimer_007587
  C   -1.07694613550713      0.19320091999892      1.33193073884732
  C   0.02573109350717     -0.80992261208298      0.90001415552311
  C   1.06833604790022     -0.11629760949242     -0.01626159956858
  C   0.69152868810527     -1.45788103837285      2.12396214120190
  C   1.35848053330473     -0.48617083464410      3.10571189313163
  C   0.01420254017837     -2.68138910288471      2.73034368784731
  C   1.33418515510277     -2.83504809767818      1.98009891917119
  C   1.38690482397500     -3.59323979619849      0.64895875840276
  H   -0.64367628947911      1.05138032729101      1.83100650168548
  H   -1.62280307366798      0.54854644441561      0.46481259267662
  H   -1.77710580306806     -0.28180499811242      2.01032347861102
  H   -0.45290504833988     -1.59511134236209      0.32903441890637
  H   1.52069369531959      0.72855738932976      0.48795899024886
  H   1.85376286055208     -0.80829014871948     -0.29693362571938
  H   0.59177269161713      0.24775204332706     -0.91987028399948
  H   0.62404524419432      0.17699345941671      3.54957038445657
  H   1.84246036863264     -1.03355566054987      3.90624035377934
  H   2.10712208597460      0.12010012447853      2.60915323188077
  H   0.01193443699787     -2.79211186982131      3.80271879744669
  H   -0.87737244874063     -3.05146154532997      2.25093443230596
  H   2.20376669797366     -2.99835422709456      2.59735838814698
  H   0.46780463855159     -3.47771771810159      0.08783071381432
  H   2.20922074223418     -3.24267130355454      0.03304764315840
  H   1.53398763633736     -4.65352380867605      0.83352547694229
  C   4.26689788323377      1.98686651934537      1.59992910946939
  C   4.67936892061118      0.60993296846186      1.01543055120288
  C   4.98896149186956      0.72563402907625     -0.49986968951144
  C   5.86126573679180      0.01096009767168      1.79181688602487
  C   7.15412095681215      0.83514880576599      1.77123564164988
  C   5.54239305846055     -0.74702971262854      3.07535266142281
  C   6.02230783002229     -1.50570325762150      1.84105374372720
  C   5.08244796608449     -2.46136562584743      1.09884444061960
  H   5.04217522696578      2.72498624220168      1.43493302246767
  H   3.35968432462226      2.34178354302473      1.12349458158282
  H   4.08956751877176      1.90838361275061      2.66695240179911
  H   3.83786478065563     -0.05902257977912      1.13197426774762
  H   5.77199156613977      1.45237284175169     -0.67895666817435
  H   5.31083390815957     -0.23000224364644     -0.89725257356064
  H   4.10381672971446      1.04326094191247     -1.04028801919921
  H   6.99495716880679      1.81727600780752      2.20258192387782
  H   7.92689320774056      0.33717681923382      2.34536936604044
  H   7.51598320228341      0.96129920319234      0.75663765050918
  H   6.21075469704618     -0.64806327020387      3.91529897364165
  H   4.50531026061171     -0.84967474179619      3.35048112601682
  H   7.04313512211874     -1.85281749254160      1.87599385545387
  H   4.05779167823968     -2.11372046286444      1.13121543751650
  H   5.37738645896343     -2.56275036207532      0.05887330186650
  H   5.11460742561830     -3.44610326877340      1.55591893091138
