36
Coordinates from ORCA-job dimer_006184/dimer_006184
  C   1.53956625340828      1.08113455533917      0.88617447992040
  C   0.61829878478820      0.25628404793812     -0.06389843596203
  C   -0.70917699576656      1.01020757570301     -0.33240810906850
  C   1.38037427894962     -0.11976259239889     -1.37245478226448
  C   2.05924300132912     -1.45848115925403     -0.98371784886741
  O   2.95962592450551     -2.01895762034135     -1.54694999326658
  C   1.33196566963622     -1.93712949958368      0.32391092789256
  O   0.28968997350994     -1.00316669047747      0.53830777685913
  H   2.47775956541131      0.56689060422865      1.06116532911120
  H   1.75514766377503      2.05015006434205      0.44874557877492
  H   1.04314143988728      1.23095078295816      1.83935064189912
  H   -0.50965547603199      1.95490314185669     -0.82809514467706
  H   -1.35864638115966      0.41024685390421     -0.96162793357161
  H   -1.21804684660541      1.20697295012412      0.60608026476680
  H   0.68895182891458     -0.29354184786962     -2.19381585759398
  H   2.10527162916617      0.62581726587894     -1.68167841677275
  H   0.91386733191431     -2.94290573210995      0.19576643008095
  H   2.04972270765374     -1.97039506501941      1.15600463822337
  C   5.27065977075379      0.51248482945751     -0.95102280671756
  C   6.16686599703226     -0.29127679496010      0.03993165791985
  C   5.31318413048171     -1.25542814702718      0.90255693127871
  C   7.30849636782857     -1.02118136550372     -0.73217345522759
  C   8.42742861851989      0.05271999526575     -0.75815443663648
  O   9.40918746820925      0.08003944462159     -1.44831294599894
  C   8.01113991031665      1.12192235739845      0.31646536495993
  O   6.84419683342759      0.60635122020731      0.93087407814097
  H   5.87164309914026      1.17248566863152     -1.56656259681374
  H   4.73226579685391     -0.17064125283327     -1.60061215154960
  H   4.55659497357399      1.11145777803822     -0.39702294424424
  H   4.81715439937749     -1.98323945088141      0.26712190707678
  H   5.94618886406503     -1.77668509999969      1.61314165833750
  H   4.56536185237865     -0.69489680523873      1.45301177153371
  H   7.65967807276811     -1.89202908658119     -0.18360005632305
  H   7.02211189229037     -1.33448345127650     -1.73104772213995
  H   8.80175204407466      1.25378288000358      1.06482572343461
  H   7.83948241262190      2.09200125545915     -0.17087140351495
