36
Coordinates from ORCA-job dimer_006443/dimer_006443
  C   1.53528184818154      1.26910167519724      1.04572327721497
  C   1.63339500764886     -0.22622456232455      0.68220924072595
  C   1.71484674637356     -0.58953919670867     -0.83771109667601
  C   2.87036581313228     -1.60885999971261     -0.51670491406616
  O   3.96314671718199     -1.50073971170570     -1.40322497554736
  C   3.01381722833905     -0.92724472684356      0.90607781151926
  C   2.37068540585243     -3.01565592337574     -0.40804329456799
  C   1.98695744350023     -4.11909076750937     -0.31930687696229
  H   2.33027347206723      1.82963669032112      0.56568084842648
  H   0.58392075780700      1.67938952085672      0.72119460351374
  H   1.61835116925067      1.40822927469856      2.11925127237193
  H   0.83794108030910     -0.78203862300004      1.16640417738567
  H   0.82670010523421     -1.00031562406440     -1.30342609121713
  H   2.10047307153943      0.22728221341073     -1.43928651538136
  H   4.66534239979758     -2.12100433209406     -1.12654476635317
  H   3.83472237860637     -0.21962495421996      0.90434425715789
  H   3.10622539364130     -1.59139369289802      1.75689530702532
  H   1.63165125802328     -5.12481800408124     -0.24386806902427
  C   7.29617595468039      1.66987890754580     -0.69220564052231
  C   6.75619424647239      0.27671947716176     -0.31202110190054
  C   7.56895424387750     -0.96359667299665     -0.81110602751857
  C   7.44410943160781     -1.60691866142423      0.62035556593559
  O   8.67688521911141     -2.10472121067637      1.10314587155280
  C   6.97303512550981     -0.19524466359925      1.16407073547587
  C   6.36080009348384     -2.63531125392345      0.71285984809084
  C   5.51942728205460     -3.44585750691787      0.80855394896627
  H   8.34007621461287      1.76409110203727     -0.41276541490040
  H   7.21219856214185      1.82974308415089     -1.76293219414835
  H   6.73424761798916      2.44877051368384     -0.18605560882443
  H   5.71332237666123      0.18888046596185     -0.60054484491783
  H   7.15759273151216     -1.53199706505535     -1.63723356628501
  H   8.60832506659426     -0.72600381867976     -1.01493449506214
  H   8.54842690172822     -2.49949287827823      1.98694726602162
  H   7.80058956727760      0.31867680998396      1.64144576052128
  H   6.11222536476120     -0.19155112657671      1.82187301258311
  H   4.74518670343624     -4.18096875834375      0.89149668938669
