40
Coordinates from ORCA-job dimer_006154/dimer_006154
  C   2.39064121663666      0.37744571712871      1.57139215083594
  C   1.88784069257638     -0.98483564163863      1.02737599044474
  C   1.45744840450426     -1.93428681294930      2.17486453965517
  C   0.88451281073503     -0.89480305008926     -0.17630480265630
  C   2.02469539712657     -1.56797972423566     -1.01142610046637
  C   2.62979709954969     -0.70148180990237     -2.16827675313201
  O   3.75587190205309     -1.31213312127813     -2.76917982522737
  O   2.87267389436341     -1.60846331234293      0.16245621419574
  H   2.73466113507827      1.00703085704393      0.75780580387218
  H   1.58743084630618      0.88705911533906      2.09469271152641
  H   3.21155286821420      0.22217737788102      2.26427798954435
  H   0.64510513342568     -1.48966391170836      2.74123644781607
  H   1.12574550223191     -2.88600826863090      1.77287196812286
  H   2.29439638449332     -2.11371247914865      2.84388352989295
  H   -0.01924646163027     -1.48217924596613     -0.06407746863420
  H   0.62686992948123      0.11162814837506     -0.48440395713958
  H   1.79846113876013     -2.57240891503885     -1.38391819021344
  H   1.85814789908720     -0.58116742196087     -2.93662728801582
  H   2.85400465627850      0.29606751155531     -1.77053789033534
  H   4.48803067031806     -1.34619305044010     -2.11083927013565
  C   5.87421799103537      1.50681206480581     -0.59856232456013
  C   6.58578626480497      0.21790288217783     -1.08523687743794
  C   7.07560944934835      0.35424880854427     -2.54975411913381
  C   7.63355881708191     -0.38613689085559     -0.08464904981053
  C   6.64320895631980     -1.59355285978354      0.02417175828656
  C   5.99212072491292     -1.82147193482012      1.43092126851093
  O   4.99508014339424     -2.82519109117781      1.40900163176866
  O   5.74385515181940     -0.95182844888150     -0.91270248839363
  H   5.49737166923768      1.37437289710193      0.40998998884958
  H   6.56982611771325      2.34030283427973     -0.60712060830638
  H   5.04227687456261      1.74323781042580     -1.25429286121399
  H   7.78902109099525      1.16850143881924     -2.62947952978417
  H   7.55304195509549     -0.56425130303481     -2.87507828077102
  H   6.23479158557885      0.55879280797301     -3.20658962305066
  H   8.60057545459590     -0.61473586982965     -0.51711788261351
  H   7.77004516547554      0.17588409864355      0.83168847378907
  H   7.02335430768400     -2.54424933561413     -0.36370795215185
  H   6.78221776281337     -2.14239419167479      2.11869381131048
  H   5.61255492709917     -0.85872998150483      1.79509125676028
  H   4.23805847084015     -2.51025169758704      0.86277160800180
