40
Coordinates from ORCA-job dimer_009849/dimer_009849
  C   1.76619943790552      1.30050429164774      0.77661355672716
  C   1.40203587784933      0.25210946721844     -0.30560269278354
  C   2.62039305520025     -0.67689710208146     -0.61221367934434
  O   3.11918191600727     -1.28654823346851      0.57046869867828
  C   2.24699999155556     -1.77159142963237     -1.65395606445296
  C   1.65113919804434     -1.28713198347111     -2.98458774181561
  C   2.99611135399078     -3.07288142655681     -1.60841059400240
  O   1.65848156351628     -2.95167819160603     -1.06252877280160
  H   2.08339552407397      0.80905202577131      1.69044347955240
  H   2.57906137941392      1.93248822934675      0.43434365565007
  H   0.91205904840992      1.93131171206363      1.00064105312860
  H   0.56332399121083     -0.35327778169741      0.02470093969153
  H   1.09972213505692      0.75623374559143     -1.21659112220707
  H   3.43266599846850     -0.07621129765126     -1.03427121133708
  H   2.44955150470019     -1.92210285359550      0.89024186370681
  H   2.32906298106061     -0.57319010279965     -3.44607226118884
  H   1.50798512780312     -2.12341082276934     -3.66132125367866
  H   0.69083862258903     -0.80640714901708     -2.82555481134327
  H   3.08861376031096     -3.66319633535442     -2.51856158225788
  H   3.80103923318464     -3.20737272686201     -0.88781814267650
  C   5.89967128339626      1.28461096683537      0.23570819070932
  C   6.86709230558864      0.13382694552814     -0.14154105523573
  C   6.11851299229660     -0.95990160555123     -0.96813457935600
  O   5.51002176898544     -0.40925140489717     -2.12814388857885
  C   7.06954096338218     -2.12128729996536     -1.38263122435634
  C   7.91963714941217     -2.76382880735524     -0.27572866944233
  C   6.69080216233058     -2.92438788134582     -2.59546424841734
  O   7.71695755706337     -1.90260737046974     -2.65518914883725
  H   5.48803649263978      1.74214381622443     -0.65754255547166
  H   5.07661024658471      0.90145977122493      0.83154408956498
  H   6.41601788731189      2.04776078414401      0.80878920523592
  H   7.70403903035842      0.51511190844974     -0.71858535014037
  H   7.26955997535388     -0.31389466582953      0.76008281759456
  H   5.31608401742616     -1.37012308368035     -0.34567017492759
  H   6.21833619180277     -0.17491730891677     -2.75905316573206
  H   7.27787044974242     -3.10241386396938      0.53361467298091
  H   8.46896617917690     -3.61433530769204     -0.66710033526266
  H   8.63308692517698     -2.04895907094101      0.12306628675566
  H   7.03522881222364     -3.95385601760868     -2.68202208451508
  H   5.75932890939287     -2.69933853926019     -3.11392009981278
