40
Coordinates from ORCA-job dimer_006209/dimer_006209
  C   1.70130285100509      1.14173843222901      0.47786054102891
  C   1.70257314116715     -0.33781301523908      0.13477499413685
  C   1.42655120824051     -0.88665588523038     -1.02386585041629
  C   1.59822114395375     -2.40092433752309     -1.01695702616748
  C   1.70693255205259     -2.73645273399526      0.51896401970050
  C   0.31487619161339     -3.19094810213592      1.05574547991358
  O   2.70882585423502     -3.70459682574761      0.81144705726761
  C   2.11029879427402     -1.37566408581439      1.17652561302349
  H   2.69530304954141      1.45362018271713      0.79214364252874
  H   1.40497767088862      1.73911392014435     -0.37781664770597
  H   1.01696905748700      1.34516345760397      1.29821820197587
  H   1.14195195881966     -0.35155746760795     -1.91580874172936
  H   0.77504802892534     -2.92402626929248     -1.49149428064128
  H   2.51424797212796     -2.68799824808326     -1.52939952422340
  H   -0.01007188145970     -4.10225019099630      0.56507312225802
  H   0.36490277896175     -3.36782951433889      2.12491311030202
  H   -0.42035480897636     -2.41708201300653      0.86248826531748
  H   2.43121877811905     -4.57072916245776      0.46039520536883
  H   3.18385487565115     -1.34616406029010      1.34534609563528
  H   1.62041523893140     -1.22554143756938      2.13213142849060
  C   5.77435349758480      1.72425916286426     -0.03283067870089
  C   5.90921225050101      0.21093871486064     -0.00566686888310
  C   5.11422533555422     -0.66457310209987     -0.57197051040472
  C   5.56952178772355     -2.10318759267592     -0.36244689800130
  C   6.66988038983962     -1.96658508216585      0.75718605707829
  C   6.04993995430475     -2.29560949117995      2.15038612288537
  O   7.82129307109537     -2.76634052346172      0.50970831518581
  C   7.08493145283538     -0.45847194569132      0.70264795047756
  H   6.65429793844812      2.17748050312438     -0.48375838906009
  H   4.90140791076777      2.02434793703099     -0.60264960506873
  H   5.68366926235743      2.11910915009155      0.97641351546896
  H   4.23340146100894     -0.42640121079374     -1.14610293089378
  H   4.75973953009479     -2.76102525431289     -0.05841860273042
  H   6.00995193651157     -2.50685310704768     -1.27129585620064
  H   5.65982746058163     -3.30794306108771      2.17118774800856
  H   6.79959350013740     -2.18816460543506      2.92704242078312
  H   5.23231428404999     -1.61487224532784      2.35774194373385
  H   7.57779427217133     -3.70743700255320      0.58345646887852
  H   8.00050793867793     -0.34739067926363      0.12530551418214
  H   7.26762047719490     -0.05159235424126      1.69088802419740
