44
Coordinates from ORCA-job dimer_006842/dimer_006842
  C   1.64283239218864      0.69685910040147      1.24347458295923
  O   1.29894321450085      0.21604539045983     -0.04721232410565
  C   2.05295050082138     -0.90138915694452     -0.45169488867016
  C   1.76506976108421     -2.28941474544389      0.23308568666459
  C   1.79503328912305     -2.94215466402278     -1.18662680326785
  C   1.63102459751444     -1.52161301400853     -1.83043796562269
  C   0.15456549763581     -1.21325255393203     -2.16303980776946
  C   2.55057551376215     -1.19257974635112     -3.02324295845720
  H   1.45634750813981     -0.05224658470435      2.02358252189310
  H   2.69869900702658      0.99154120129857      1.30230845352000
  H   1.02331154112334      1.57438424556100      1.45176607707756
  H   3.12676071366730     -0.68400432933435     -0.44158271791031
  H   2.49182764929959     -2.64044346935543      0.95500257506939
  H   0.77679224245411     -2.31953814229495      0.67630168364386
  H   2.75540831142142     -3.38807161041381     -1.41387048678453
  H   1.01307885276159     -3.65726717076877     -1.40764694274000
  H   -0.48749825892813     -1.44583310174270     -1.32168523201010
  H   0.03389805020905     -0.16180350331381     -2.40010683980689
  H   -0.16479512199044     -1.80164168297450     -3.01639714687536
  H   2.28601068836594     -1.79667435688843     -3.88454777835216
  H   2.45132736412765     -0.14731616280891     -3.29526847028804
  H   3.58715424708999     -1.38214973514089     -2.76992477822777
  C   5.00283075953832      1.30034307964201     -1.53235720693640
  O   5.21065012971795     -0.04277578545831     -1.12116201792577
  C   6.31311899740187     -0.66947891847521     -1.72704792691051
  C   7.75364571487301     -0.27751250927245     -1.22804597715192
  C   8.09782430673465     -1.79964530187495     -1.14417921667540
  C   6.57157773045711     -2.14490079500870     -1.25052189441968
  C   5.94392814123499     -2.41499466725778      0.13417798600643
  C   6.19032950666579     -3.24965782074820     -2.25718784340793
  H   5.84431192875979      1.94831218905526     -1.25547616777067
  H   4.85392393243023      1.37592437290900     -2.61709627585313
  H   4.09942895268107      1.66718561536834     -1.03431314159645
  H   6.24854927349920     -0.61486863155177     -2.81807087882999
  H   8.35608823970217      0.32637471205195     -1.89545472016471
  H   7.72106318243606      0.19285179124778     -0.25204513561600
  H   8.66078821239851     -2.14589528313694     -2.00245166133709
  H   8.59461527097913     -2.13114231743884     -0.24116511178870
  H   6.18807726144117     -1.62128962218153      0.83071648882631
  H   4.86446581548378     -2.47953447186711      0.05646574555235
  H   6.31763461860798     -3.35253675942714      0.53210990130530
  H   6.54365253055976     -4.21496815716346     -1.90986970303020
  H   5.11280252675714     -3.30286804206842     -2.37198544122361
  H   6.62946940624110     -3.05498888462037     -3.22913024099154
