40
Coordinates from ORCA-job dimer_009544/dimer_009544
  C   0.10846829621578      0.84580130934801      0.21626440581374
  C   0.79842453274368     -0.49997927287385      0.52813525472856
  C   1.94901978181893     -0.87472975476735     -0.43508455409101
  C   2.71718969165103     -2.01271281819689      0.29993844474348
  C   1.50148177191159     -0.55269483493841      1.92660461097200
  O   0.51662927780567     -0.63353811083118      2.93864120350592
  C   2.44738069181914     -1.80394855919195      1.82373891925686
  O   2.32727317211476      0.59095127995137      2.14611083658837
  H   0.83330574428417      1.64869693769535      0.13984554282477
  H   -0.41587387568438      0.78263401516417     -0.73176053991397
  H   -0.61500128168220      1.09258524006710      0.98784343480632
  H   0.05553161763389     -1.29195801978875      0.52887556364803
  H   1.58419913528650     -1.18580219551870     -1.40704515290091
  H   2.59335012867179     -0.01480617001214     -0.58006391224866
  H   2.34176619648703     -2.98022370350327     -0.01429966129036
  H   3.77722965398519     -1.98982149754078      0.07540450182406
  H   0.94173896748132     -0.79180925414234      3.80280817037052
  H   3.36219510991360     -1.64256788154855      2.38534869930588
  H   1.93669241563176     -2.66231976001418      2.24779347549199
  H   1.77080487663875      1.38898838807193      2.20904642195087
  C   9.19173240151094      0.09557301759194     -0.21841321859041
  C   7.65810664677314     -0.06433408192306     -0.27338227676394
  C   7.19144646304389     -1.54204712412237     -0.50450058834225
  C   6.91433563811344     -1.68068786515354      1.02787562859805
  C   6.99711649041646     -0.11203138977158      1.15020954211102
  O   7.78066612166729      0.41551099547272      2.19204296961087
  C   5.57759421886526      0.53811386513424      1.17218725163100
  O   5.07728099676711      0.35321985108046      2.48913217873001
  H   9.62632959909553     -0.63532501179212      0.45449302495630
  H   9.62052593045566     -0.04356051116869     -1.20570193822265
  H   9.45704308330422      1.08426924068839      0.14236217505380
  H   7.22861233885842      0.66998503811433     -0.94416256368535
  H   6.29070054863569     -1.61021867526513     -1.10260627013903
  H   7.93622159986497     -2.20990059424828     -0.91830473301961
  H   5.98112594203616     -2.14083063011877      1.32687081995101
  H   7.73341868668455     -2.16020185227221      1.55117241032437
  H   7.21238391457591      0.48283775811313      2.98455771805332
  H   5.66829496570371      1.60134496728652      0.91598127108358
  H   4.94739097856200      0.06731619995365      0.41106838689390
  H   4.11586594433718      0.54637213097082      2.50751648837946
