36
Coordinates from ORCA-job dimer_006949/dimer_006949
  C   1.41142285323706     -1.40961305982375     -2.59714611131150
  C   0.54505238263809     -0.93928376147315     -1.40333854670635
  C   -0.95256037901527     -0.88649824363745     -1.81264120534141
  C   0.75265980336251     -1.80337265881326     -0.12653149351350
  C   1.06289813576638     -0.79196349170144      0.97648047030489
  C   1.19289246656617      0.44288612430350      0.54061303896090
  C   0.96965453769521      0.49689691305506     -0.95638123719727
  O   1.07779231516793      1.44957512313212     -1.68309185618949
  H   2.45149998348941     -1.50344067673058     -2.30053750177042
  H   1.06774153115725     -2.37576289027061     -2.95019589514094
  H   1.33825350833770     -0.69595939486340     -3.41147449979818
  H   -1.29087538893484     -1.87120319052918     -2.11650321697858
  H   -1.56686255555218     -0.55061767318841     -0.98387076069814
  H   -1.08789964924267     -0.20140367612746     -2.64353046175125
  H   -0.12509781164450     -2.39487702726920      0.11531700281433
  H   1.58999072838830     -2.48936016949306     -0.24276512575570
  H   1.17498369119255     -1.11374051441201      2.00435621310223
  H   1.42848471531721      1.32118636401137      1.12055892001741
  C   6.60045261451804     -0.36270952534333      1.05612587848784
  C   5.11197978514933      0.07705866410671      1.13914781281677
  C   4.45869705883738     -0.48569269015119      2.42238112131080
  C   4.98614663767540      1.62121020103499      1.00169107461156
  C   4.53712089684521      1.83574851291512     -0.44493547724198
  C   4.21871240374970      0.72071776902469     -1.06712366586154
  C   4.39455185896568     -0.46360064655907     -0.13925293132485
  O   4.06523046437688     -1.60584581487734     -0.32511593176538
  H   7.06385048412816      0.02195005235736      0.15349894894080
  H   7.14840539021952      0.01349775157666      1.91327307579330
  H   6.67122974004830     -1.44574517121680      1.04749332027701
  H   5.00586758639334     -0.15647640271853      3.29929126267282
  H   3.43206981466763     -0.15023268982261      2.50977916792047
  H   4.46625880939495     -1.57081472595863      2.39495309163006
  H   4.24278191185100      2.02237972262378      1.68631757388871
  H   5.92310786113117      2.12867100984534      1.20940478905920
  H   4.47928344337340      2.83012657453602     -0.87105056205837
  H   3.85438929474717      0.62273202345789     -2.07851744820422
