42
Coordinates from ORCA-job dimer_001749/dimer_001749
  C   1.49412479825398      1.46190121213755     -0.61358872931409
  C   1.50061536262222     -0.07713332433681     -0.41557048245449
  C   0.07503325049915     -0.67715639142106     -0.53740504174249
  C   0.05575913271491     -2.18695074635521     -0.26159339745074
  C   0.82217259649405     -3.04389073211388     -1.27585357049811
  C   0.05774581235538     -2.63115013149375      1.19537275160362
  C   -1.20882719157519     -2.77510183932988      0.35516105412957
  H   2.49655609718156      1.86745623559000     -0.52429780636929
  H   1.10883911581558      1.71956374552537     -1.59438199626309
  H   0.86687007975518      1.94008806850914      0.13103413034118
  H   2.15216734022592     -0.53419355914493     -1.15072932641744
  H   1.90541720094798     -0.32189815957745      0.56020511847517
  H   -0.58119244899530     -0.17867687856030      0.16680084178306
  H   -0.31713410499528     -0.48595699968741     -1.53117345174958
  H   1.87514038609025     -2.78396178088573     -1.27914805858087
  H   0.73221638951247     -4.09649222826400     -1.03258490496049
  H   0.42875971448949     -2.88893070610710     -2.27565704954529
  H   0.59825565084964     -3.52629069877880      1.45847418042028
  H   0.07731955794622     -1.86909574128490      1.95815402458621
  H   -2.03339720439616     -2.11093167251359      0.56012447795367
  H   -1.51005127107161     -3.76645398641509      0.05571527262143
  C   6.84584206550474      1.46156228505759      0.45050434358866
  C   6.56415330486974     -0.03599720254474      0.15622526946381
  C   5.10118423666640     -0.41792994820937      0.50559105772235
  C   4.82250848294757     -1.91306911590717      0.30068871776908
  C   4.90536765605040     -2.39902575378832     -1.15128488707409
  C   5.28459817799742     -2.86687129641933      1.39553270194361
  C   3.79735590803846     -2.57440716075472      1.21507422842672
  H   7.86907891505854      1.72006525181896      0.19847580044728
  H   6.18224952419131      2.09484119034309     -0.12864880389825
  H   6.68844507255008      1.68026639233745      1.50124556450202
  H   6.75441580463822     -0.24014167510849     -0.89129946437570
  H   7.24137350535110     -0.65861837279357      0.73146939192207
  H   4.90411249341804     -0.15818763124380      1.53931686673657
  H   4.41962829791902      0.16384435807750     -0.10573575554332
  H   5.91400661246476     -2.29323488370803     -1.53677587174320
  H   4.62468766790900     -3.44399474848469     -1.22111411861585
  H   4.23824622886988     -1.82217066167840     -1.78385549151369
  H   5.65090793094368     -3.83922262221594      1.10699506178370
  H   5.78340032749188     -2.44903602307786      2.25552133502722
  H   3.30484206248685     -1.96529910661890      1.95610577495032
  H   3.17099615391220     -3.35019325957331      0.80500096091246
