44
Coordinates from ORCA-job dimer_009913/dimer_009913
  C   2.29083173352343      0.32802983545556      1.41555178921170
  C   1.42209689322908     -0.67656787019480      0.60836708636273
  O   2.11494537771190     -1.02136908162797     -0.58608221854527
  C   1.40223554177473     -1.94527321778377     -1.40003914477003
  C   2.25568008053260     -2.28942359633851     -2.63014892836657
  C   2.55739376679026     -1.09777365000256     -3.54409790785407
  C   3.30744465369861     -3.37922420509030     -2.46271945999109
  C   2.03584889617217     -3.66245362943820     -3.25707162055170
  H   3.26407706241996     -0.10532382767200      1.62301895022546
  H   2.43205398894032      1.24291970316651      0.84975929172822
  H   1.80678958898119      0.57070085934720      2.35686860875561
  H   1.22852276157374     -1.57005415899428      1.21550872393330
  H   0.44790159371124     -0.22618461596922      0.37893975286834
  H   1.17672288465669     -2.86248107029416     -0.84380062930868
  H   0.44510317190056     -1.51777303296235     -1.72552087237412
  H   3.08909912941090     -0.32611423349617     -2.99502491838362
  H   3.16779064912867     -1.40620939402837     -4.38556074422455
  H   1.63544078381874     -0.67114086988407     -3.92740664077774
  H   4.23638044410043     -3.27995957874736     -3.00177443341547
  H   3.41566483532284     -3.83535377903316     -1.49106667055855
  H   1.29445261294353     -4.31390276753399     -2.82155475203121
  H   2.11395968259194     -3.74509482715220     -4.32991873144634
  C   5.40635255818623      2.80520942760326     -1.28594538743125
  C   5.08257801529723      1.36186613741227     -0.80750714246053
  O   5.99647979407800      0.47030848371899     -1.43278637555848
  C   5.73625862324318     -0.89805826330813     -1.14840920748350
  C   6.69077685797478     -1.75839505380998     -1.99202665883313
  C   6.64245560864922     -1.45822342670685     -3.49318757069209
  C   8.02761323453523     -2.14853329280034     -1.37429100185064
  C   6.92268059598787     -3.19121990415556     -1.52710976908188
  H   6.42636506721509      3.06554729764910     -1.02147306000298
  H   5.30218640879721      2.87216565980890     -2.36420728493901
  H   4.73090676265234      3.51812067444585     -0.82323329310967
  H   5.16529748658402      1.30372938718200      0.28488534111530
  H   4.04772034536515      1.10070970587634     -1.06412388944456
  H   5.88667941816709     -1.11635894414037     -0.08493476064695
  H   4.69564908578603     -1.15599003024476     -1.38590732995102
  H   6.93801943100031     -0.42813505606941     -3.67072485054083
  H   7.31365058006930     -2.11336702064530     -4.03721137614565
  H   5.63759262202122     -1.59279867235192     -3.87915017592667
  H   8.88547304251089     -2.21795568099444     -2.02457866145624
  H   8.25664338645078     -1.78802655787618     -0.38370306363845
  H   6.41288065648856     -3.52847811828513     -0.63838081667357
  H   7.04341095400600     -3.95595344303396     -2.27799934973425
