36
Coordinates from ORCA-job dimer_007983/dimer_007983
  C   4.18632292099169      2.40933927395323     -0.24624985355905
  C   4.03991195341200      0.90446475736113      0.09736196219657
  C   2.55608310524250      0.41827525355029      0.20368275057914
  C   2.62748802698637     -1.04166295426810     -0.30275999509852
  C   1.37583818661603     -1.55570705076604     -1.04887817373542
  C   3.88377580589074     -1.00554815795285     -1.22818998487684
  O   4.21307094201264     -1.79519236267338     -2.06884549201289
  O   4.62323392022185      0.11746378171021     -0.95058786132159
  H   3.69868588304103      2.63111579840167     -1.19025403106161
  H   3.72947152365841      3.00963374196553      0.53521972031862
  H   5.23632440099346      2.67560172265169     -0.32177262267169
  H   4.57140549575174      0.68605860599070      1.03172815699180
  H   2.18574560797511      0.49146384203086      1.21988044330279
  H   1.91727581936932      1.01366142117433     -0.43903303262002
  H   2.86931082162305     -1.71153967612370      0.52292367925694
  H   1.11624254209095     -0.89145495888695     -1.86677835192650
  H   1.56598516537225     -2.54509048959577     -1.45614143716637
  H   0.53075867586549     -1.61438628211164     -0.36980388579173
  C   9.07797284546147      1.04358063150557      0.74760513882852
  C   7.96153500702216      0.27613847797729     -0.00662640365301
  C   8.45587909686148     -1.02557817413002     -0.72037635967923
  C   7.22167564500047     -1.95543632974181     -0.64691175122617
  C   7.52663741443069     -3.46148180961840     -0.47927190948871
  C   6.44681248452585     -1.38301822343566      0.58308162330774
  O   5.53369014276592     -1.88105074089265      1.18186375390988
  O   6.96763013767090     -0.16149509799944      0.92665354910892
  H   9.53563024071056      0.40171405116498      1.49374281499957
  H   9.84134871876139      1.36631586492787      0.04559964606984
  H   8.66562696571206      1.91711536382223      1.24406177723961
  H   7.48279945229583      0.93767563165186     -0.73865784313205
  H   8.77160723649733     -0.82796485796848     -1.73835715971911
  H   9.29133959656895     -1.45452433875416     -0.17860929101995
  H   6.58328247790645     -1.81025546699967     -1.51921931128837
  H   8.16223266521437     -3.63412224607222      0.38312731840435
  H   6.60030972620392     -4.01321015825271     -0.34333577005103
  H   8.03047562927287     -3.84180537159550     -1.36257484241432
