40
Coordinates from ORCA-job dimer_006206/dimer_006206
  C   2.45371841241070      1.11870078001621     -1.40175313136922
  C   1.99705464804474     -0.21754753611107     -0.84019540566202
  C   1.58216426637371     -1.26307502812535     -1.51222030482640
  C   1.26168174551170     -2.46716231008232     -0.61037203635651
  C   -0.12119444481648     -3.10976339491312     -0.93718998099060
  O   2.29591251848006     -3.45544277258832     -0.67898797507369
  C   1.30752379266617     -1.84189630221506      0.82441199809868
  C   2.01754470283490     -0.46709827373897      0.66753817842794
  H   3.47771576154381      1.31960743947065     -1.09431556324681
  H   2.40735711582434      1.12360232204165     -2.48544651596346
  H   1.83003048554030      1.92496873035359     -1.02243878738331
  H   1.49687791162291     -1.32623919747640     -2.58425015234985
  H   -0.12430551869686     -3.52159018941588     -1.94109965013548
  H   -0.33599481737486     -3.90755524299220     -0.23348158259498
  H   -0.90498284447539     -2.36288397005664     -0.87199045641224
  H   2.33333174212058     -3.81854161322248     -1.58326880711114
  H   0.30020033981592     -1.70703486453912      1.19930475935485
  H   1.83232220635619     -2.50817292357121      1.50037703266721
  H   3.04244937919494     -0.49622974931103      1.02402767731351
  H   1.50699454259132      0.32152116040663      1.21139968820374
  C   5.56213044722798      1.18310612189271      1.54997351236421
  C   5.70399615268291     -0.10630802543916      0.75683658660878
  C   5.89344017127523     -0.22468048259910     -0.53434887614371
  C   6.04902380493448     -1.68933783481222     -0.98028867276113
  C   5.21654597153334     -2.02405897196938     -2.25394865460403
  O   7.42887740047098     -2.01725597299357     -1.18527316754361
  C   5.56021745713451     -2.47462142757422      0.28036018346461
  C   5.66361525307671     -1.46607478559963      1.45921090309294
  H   6.34778750531063      1.25380924270840      2.29911761508370
  H   5.62549336895077      2.04950232431811      0.90039241072541
  H   4.60836761584243      1.20881339352998      2.07185587137063
  H   5.98114728954929      0.58979196055071     -1.23375920636465
  H   5.56715416386067     -1.44838099904106     -3.10387757383655
  H   5.30655476376811     -3.07956225042071     -2.48749445215869
  H   4.17226369413803     -1.78790793349778     -2.08152168300875
  H   7.78217560042542     -1.46665687106240     -1.90841466496406
  H   4.52931952870550     -2.78714096840617      0.13839309914145
  H   6.16776438327180     -3.35989100317599      0.43001970208953
  H   6.57193192551292     -1.61249522589520      2.03885327182729
  H   4.82654546975910     -1.54807207744270      2.14488657202644
