36
Coordinates from ORCA-job dimer_006109/dimer_006109
  C   -0.50284336577980      0.35522132615475      1.62673747434276
  C   0.73493535313923      0.78597973381108      0.80607803691629
  C   0.64465481063406      2.26831831232615      0.39208546957044
  C   2.07271622744090      0.35230326961803      1.49902880277441
  C   2.13989140641540     -0.86997548585707      0.53102037528502
  O   2.71245116896115     -1.91879680644083      0.54519393260321
  C   1.03010876563103     -0.21873409228117     -0.38903411263379
  O   0.00435952827839     -0.98955818805850     -0.95396684072402
  H   -0.42425621825301     -0.67752322762746      1.94875436721564
  H   -0.59502634581480      0.97467101768569      2.51251766513186
  H   -1.40693731792495      0.46836557277388      1.03691597103426
  H   0.58261123787538      2.90593829417226      1.26807662916008
  H   1.51877822139236      2.55628337499074     -0.18290070778013
  H   -0.23856846121420      2.43641261409614     -0.21614105117936
  H   2.88742720042025      1.04761518785540      1.32272099403146
  H   2.01878144784922      0.12009835635992      2.55736693493670
  H   1.52969049601072      0.31803017850169     -1.20346192593465
  H   -0.39972488942463     -1.56791027367180     -0.28090363053842
  C   5.82885452729717     -1.88126866486770     -0.94550559817268
  C   6.12457556361871     -0.70229944658692      0.01058348991865
  C   5.96622845745549     -1.12989308217630      1.48336858340866
  C   7.46931556733055      0.01539244320025     -0.36324250511094
  C   6.63942170348129      1.09354007470721     -1.12776022997540
  O   6.88148879877900      1.89184978321358     -1.98231956863614
  C   5.32101004320868      0.60474832906750     -0.40222200682719
  O   4.09795852806734      0.52360928028094     -1.08174385649176
  H   5.95649869418868     -1.59172440529083     -1.98297393437802
  H   6.51165352782961     -2.69900526961690     -0.74149370047773
  H   4.81437113447753     -2.24232344113262     -0.79912436904380
  H   6.66732438242428     -1.92294130310746      1.72264993874796
  H   6.15193358383174     -0.29582533303463      2.15084631496632
  H   4.95952658533466     -1.50094680521658      1.65690524603126
  H   7.98682529933652      0.43603902840004      0.49464182421068
  H   8.17473029042131     -0.55448574677577     -0.95898374649341
  H   5.16218999024018      1.23280382074475      0.48086707569421
  H   4.19954405703977      0.01336357378254     -1.90645534158239
