38
Coordinates from ORCA-job dimer_005566/dimer_005566
  C   0.52135281601995     -0.93907922830708     -0.41757804422189
  C   1.89100309594520     -1.63758519914256     -0.66424318107094
  C   2.78829587963115     -0.80943153099633     -1.56275542609100
  C   3.62858474439068      0.18471559191824     -1.17671619968576
  C   3.93434563748631      0.72884208313347      0.20258822319135
  N   4.21595710482019      0.70606518049894     -2.30381205745377
  C   3.75485321976548      0.03714343403657     -3.41077390140700
  C   2.86747565639495     -0.89924613494947     -2.99198709729364
  H   0.67130598629183      0.02181183121637      0.06277238280914
  H   0.01219101512362     -0.76926182917447     -1.36030232031185
  H   -0.11667032488966     -1.54704129674492      0.21582285054993
  H   2.37771124202694     -1.81505752241689      0.28930396184219
  H   1.72024927763714     -2.60758314674435     -1.11989893746147
  H   3.48882226906412      0.09074272931507      0.95781880567369
  H   5.00629082902501      0.77079827711303      0.37591320718380
  H   3.53109046821690      1.73203405246311      0.32724751652601
  H   4.96447426130105      1.38687794915904     -2.30322299949741
  H   4.10098737093308      0.28504032743929     -4.40144934470151
  H   2.31715399845062     -1.58162775654745     -3.61165604609331
  C   7.69234584565004      2.30862974122442     -0.02744640771213
  C   7.96635831083311      0.77894172086388      0.03643374668397
  C   7.43028499142125      0.04997689947245     -1.18068588174776
  C   6.67518373499262     -1.07928454461049     -1.19955542917555
  C   6.13558014928064     -1.93942432999979     -0.07504510855142
  N   6.43473576425977     -1.40620056017267     -2.51281954455380
  C   7.02767836995145     -0.47823190043112     -3.33306400671296
  C   7.65299344883046      0.43160328914115     -2.54668199722385
  H   8.17319551743385      2.74336617654597     -0.89648496384208
  H   6.62839339518236      2.50560097744646     -0.09514006149475
  H   8.07625570445608      2.80464656436546      0.85811249971167
  H   9.03913531380864      0.61876310122651      0.11922959044573
  H   7.52016050086078      0.36915389643442      0.93565331362602
  H   5.06454203814152     -2.09252652094982     -0.18834328970280
  H   6.62029395791009     -2.91383259396720     -0.06154052533472
  H   6.31353361014062     -1.46178719261545      0.88160670972460
  H   5.82994691728981     -2.15750198965774     -2.81688433666996
  H   6.95356570626756     -0.54632637412418     -4.40686533094348
  H   8.22227420365376      1.27730463153817     -2.88208428001304
