40
Coordinates from ORCA-job dimer_006863/dimer_006863
  C   1.06888257649025      1.62265707483859      0.04328359816194
  C   0.52942101142511      0.17183998453860      0.03334683845231
  C   -1.01848050502423      0.16125991002093      0.05068791602639
  C   1.04156579479640     -0.58905299547286     -1.23083419509215
  O   0.67009879184608     -1.96222951189256     -1.17214902875950
  C   1.14958289559248     -2.61344488416448     -0.00425794149048
  O   0.69704452707689     -1.98812373234284      1.18822524565970
  C   1.06982051760248     -0.61646414498454      1.26860531621535
  H   2.15271390563574      1.63547337682974      0.03099882807767
  H   0.70978721936003      2.16401891693938     -0.82531080655331
  H   0.72996823534230      2.14441464642068      0.93175708998640
  H   -1.40962209170558      0.67646899302870     -0.81936465606896
  H   -1.38692778963608     -0.85949795279200      0.04377804496792
  H   -1.38978786271620      0.65741021770836      0.94028680156577
  H   0.59479835850607     -0.16858364535059     -2.13506084845548
  H   2.12991368385387     -0.48173252958438     -1.30846342184301
  H   0.74762489293726     -3.64033623456692     -0.01095568192377
  H   2.25767476828788     -2.66053877961458     -0.01746893534012
  H   2.15964215781037     -0.51039257407939      1.32403055100050
  H   0.64357075081524     -0.21612874910845      2.19167945784470
  C   5.07215263777258      0.87508767548891     -0.00383220329499
  C   5.97611270349947     -0.38104837692062     -0.02940643195463
  C   5.12481589259774     -1.67364449546914     -0.04097495264560
  C   6.89959461729602     -0.35557982392320     -1.28909099261593
  O   7.84341828026412     -1.41999984663781     -1.23925012876391
  C   8.64332987817647     -1.39019842612387     -0.06613778398118
  O   7.86300613257768     -1.45404649935257      1.11875124853467
  C   6.92038643276133     -0.39174976283979      1.21498617225800
  H   5.66711786479513      1.78200260888569      0.00409456074760
  H   4.43083003541544      0.89591638800624     -0.87823488888894
  H   4.44567340510869      0.87080449172296      0.88144738390100
  H   4.48738020530541     -1.69863300699077     -0.91750715469673
  H   5.76989594084753     -2.54641368986296     -0.05885333086719
  H   4.50189436995003     -1.72410947491487      0.84487517912692
  H   6.30661619160424     -0.48723479835079     -2.19753145014509
  H   7.40736306601795      0.61424070683645     -1.35376526662062
  H   9.29008489993218     -2.28330005590605     -0.08440357032556
  H   9.28164908796222     -0.48255121938288     -0.05833246935268
  H   7.42938354707190      0.57592014016440      1.29924367322170
  H   6.34253435474689     -0.54976655580062      2.12895527393131
