38
Coordinates from ORCA-job dimer_004127/dimer_004127
  C   1.86427182362428      1.17426068601417      0.45722615835116
  C   1.82714047259596     -0.35197275164258      0.32102685907879
  N   2.19805547299200     -1.18827056532999      1.19913144907264
  O   2.68256426469519     -0.62705169536173      2.36412680912963
  C   1.32627107761309     -0.89171211704458     -1.01140097196373
  C   2.23042518940078     -0.58474257141270     -2.25795264633044
  C   2.07731032123386     -2.07821346193436     -2.70304291336465
  C   1.47667025061825     -2.41826365038402     -1.29708360325477
  H   2.75597501339165      1.56839274430090     -0.02748318915469
  H   0.99538709429000      1.60544717225370     -0.03063692338145
  H   1.87423980450426      1.47754859014302      1.49975349341018
  H   2.85495617840214     -1.38689367159833      2.96355188536296
  H   0.30984379906150     -0.54657629460849     -1.17282511863742
  H   1.85997427964903      0.16817498970039     -2.94352468533049
  H   3.24728917729517     -0.33786866378994     -1.97327687699372
  H   1.36088523593139     -2.20330278475203     -3.50685679815897
  H   2.99338277179962     -2.59191720224099     -2.96757470609829
  H   2.19653278401916     -2.88233846132859     -0.63238690302607
  H   0.56096535953215     -2.99708973317131     -1.28663144087189
  C   6.91900739370004      1.58170270516715     -0.17556228626884
  C   6.07975397309811      0.31044362882855     -0.35572202210203
  N   5.16260044402597     -0.04503730123706      0.44158121532781
  O   4.96519450313949      0.80091676388833      1.49821384592591
  C   6.40172621847715     -0.57440700569895     -1.55525984680238
  C   7.78952415788575     -1.29832413117348     -1.41369023694332
  C   7.03763924061463     -2.64030332777215     -1.12385034910879
  C   5.69324490613623     -1.96689960689676     -1.55850691321947
  H   7.43411933132903      1.56326239313704      0.78233898523883
  H   7.65324594341593      1.66885788213514     -0.96844133265049
  H   6.28017803508722      2.46200989955358     -0.18630417762871
  H   4.19409533709869      0.42064533392618      1.98819525088493
  H   6.29112985354872      0.00620318424801     -2.46522579830124
  H   8.34879015152577     -1.31709310044031     -2.34199236248073
  H   8.43330851844496     -0.92997390266706     -0.62423877951417
  H   7.35370084944961     -3.49710161008689     -1.70684914377229
  H   7.04960701709027     -2.90806743333515     -0.07352597974950
  H   4.86398907576701     -2.06357035303182     -0.86800994930259
  H   5.37393167951401     -2.26624057635659     -2.54932399737139
