26
Coordinates from ORCA-job dimer_011146/dimer_011146
  N   0.32280185332771      1.58344504984438      0.62029677781692
  C   0.07367670621312      0.37191592639747      0.40664290220305
  C   -1.23806726166899     -0.36391863591325      0.80303060853766
  N   -1.04779007154102     -1.76176327022632      0.33763853058416
  C   0.10058260301910     -1.81968557121947     -0.20000928713991
  N   0.84275655361862     -0.62970305613733     -0.20995279127662
  C   0.67503462479815     -3.02895329630287     -0.78594571434686
  C   1.14953322530112     -3.99457334041747     -1.25468779311300
  H   1.24335004679530      1.88224701398990      0.28182282124197
  H   -1.40411144072733     -0.33680311936608      1.88387826879050
  H   -2.11210698695818      0.08624788493421      0.32350677917958
  H   1.77560449142981     -0.52587038882372     -0.62301710497772
  H   1.57820669447150     -4.87950745216142     -1.68178387855092
  N   3.52529085613197     -0.59098497618213     -1.21261434449725
  C   4.28291635995140     -1.35417877480802     -0.56336353449168
  C   3.90526448441819     -2.11689597508979      0.73824074719794
  N   5.13137669659763     -2.86289807456720      1.11297325846520
  C   6.01596595109489     -2.61068294664922      0.24269671905297
  N   5.61260579632628     -1.73184625363945     -0.78932632638248
  C   7.37069313582599     -3.14792544380231      0.23880230011907
  C   8.46434714430086     -3.57394449345495      0.22585386821607
  H   3.93764052378148     -0.17309314219574     -2.05078990200728
  H   3.61093663825638     -1.42912456537497      1.53805090183025
  H   3.07059388004080     -2.80663540112566      0.56826512371409
  H   6.20129636899625     -1.43194027898050     -1.55138622922384
  H   9.46412667119878     -3.96586883072795      0.21700840105813
