36
Coordinates from ORCA-job dimer_007529/dimer_007529
  C   1.45145455766283      1.12565547497318     -0.72523809907448
  C   1.32336560670568      0.00947934653827      0.31563929763838
  C   -0.11300080621573     -0.45644779607429      0.58335568948297
  C   -0.70898269076054     -1.11678398352992     -0.68985687040529
  O   -1.80136078173157     -0.86429227069064     -1.13802145753725
  C   2.43128778598587     -1.04171829387860      0.37734126548859
  C   2.30263576233925      0.01527541661870      1.49011605072799
  O   3.21423538910702      1.06710196423802      1.56705351908098
  H   2.48340660613189      1.44930699467859     -0.80564443308912
  H   1.11230469000974      0.78581355199794     -1.69943825908108
  H   0.85012861963569      1.98112882839744     -0.43232920678832
  H   -0.12366903307511     -1.19048035471131      1.38603687598724
  H   -0.74286913975961      0.37780921225558      0.88071437560970
  H   -0.03724463732336     -1.85326922571561     -1.17143742744384
  H   2.16866456291044     -2.06302647592990      0.60283052225064
  H   3.25103196029672     -0.93515057028424     -0.31372880856133
  H   1.90583232365895     -0.34225609445685      2.44007396346751
  H   4.08104743212925      0.72994599694822      1.88330243334954
  C   6.11960800347105      1.65570868923706     -0.09592388712410
  C   6.30378812229163      0.15038752705903     -0.31811016411201
  C   5.88073165492775     -0.34488581813436     -1.70702556601183
  C   6.82479335190848      0.24152732023676     -2.79302077932426
  O   6.44006822505576      0.75528647921646     -3.81512663541739
  C   7.49759126824229     -0.53417288662668      0.34730141862948
  C   6.07333449051483     -0.78696638944697      0.86664682976118
  O   5.65855821994994     -0.20330653982319      2.07328527340898
  H   6.43418633882538      1.93825378722520      0.90296380219739
  H   6.70609988051187      2.21785629598588     -0.81685773552667
  H   5.07354873019072      1.92834784970381     -0.21242649070615
  H   5.93800201996240     -1.43030902567064     -1.75327462027641
  H   4.85887745811061     -0.04859102145606     -1.92949528724915
  H   7.90149546799976      0.15290738530515     -2.55181152710073
  H   8.00027801287755     -1.33628893866880     -0.17165640064238
  H   8.14622977988325      0.08064121514756      0.95299177331008
  H   5.63234707587243     -1.75865590545051      0.64695955309560
  H   6.02983668169660     -0.68775044821427      2.83455849598553
