40
Coordinates from ORCA-job dimer_006453/dimer_006453
  C   0.35616271701030     -0.75069224834938     -1.65143882872152
  C   1.47636703147767     -1.04267699916226     -0.63250633349052
  C   2.87352711097485     -0.39190707719980     -0.90259264063144
  C   2.93372006109166      0.08395094036029      0.59323318949929
  C   3.33176996089613      1.54684533241250      0.85288997561941
  C   1.41355441382076     -0.28346000094790      0.73446587549893
  C   3.80182682020152     -0.88047646233663      1.42939028529172
  O   4.67874569751875     -0.52484471251895      2.17838031845477
  H   0.25633206829354      0.31745047194447     -1.81096921781259
  H   0.57583183938996     -1.21963478233657     -2.60578235514475
  H   -0.59504045129872     -1.13308554846622     -1.29390615046039
  H   1.56646657847330     -2.11268062870732     -0.48201247618738
  H   3.66343594217721     -1.05660594678483     -1.23204134774140
  H   2.81513420732191      0.44720063639572     -1.58524027525004
  H   2.70128326188562      2.21370177609261      0.27528840760716
  H   3.22264797200670      1.78975490120239      1.90527118702775
  H   4.36575043726413      1.71748979289050      0.57144331412678
  H   0.78546715719817      0.59802436231631      0.68997568803871
  H   1.13615866243398     -0.86696837817542      1.60442590702148
  H   3.55928889147492     -1.95071528696543      1.28549313442716
  C   7.51325159850634      2.69012177498270      0.63515741777760
  C   7.31628229050953      1.16761296916816      0.78222555533943
  C   6.89825968752373      0.37246700238601     -0.49820618382150
  C   7.99321593243964     -0.70596884676613     -0.17425730090950
  C   8.89806697305873     -1.15780697762665     -1.33325321901242
  C   8.60431508502186      0.28459459111546      0.87855897836754
  C   7.35614725075380     -1.92410993416396      0.53202453776507
  O   7.48662516931557     -3.06335374514736      0.15492263712537
  H   8.18471607079052      2.91143577510743     -0.18725795046019
  H   6.56508753960410      3.18288458206626      0.44394809924469
  H   7.93658579233793      3.10889896186643      1.54284824713958
  H   6.63904604172416      0.95963278044450      1.60472559643244
  H   5.87435313850357      0.02499947325963     -0.54561598224845
  H   7.12818187871249      0.90774973120769     -1.41131039547039
  H   9.33372283384137     -0.29704439122245     -1.82815577432873
  H   9.69992280907262     -1.79007194032446     -0.96529807651197
  H   8.32739678220663     -1.72649666001484     -2.06061016651771
  H   9.48162889114271      0.78748788852583      0.49052335344266
  H   8.83832774609903     -0.12973949672460      1.85196428249676
  H   6.75338810922255     -1.66719967980375      1.42431268697660
