38
Coordinates from ORCA-job dimer_002860/dimer_002860
  C   1.02418292135251      1.06728365034145      1.11286420582049
  C   0.88718145687408      0.03818296573456     -0.04248138897695
  C   2.24229465198474     -0.18589554436864     -0.73498440156749
  O   3.17400567751871     -1.10191123574819     -0.11650157174755
  C   2.62963456975160     -1.47835756255514     -1.40160584285481
  C   1.70984049454124     -2.71011254827666     -1.45898080406224
  C   2.54257655390695     -4.01758925391643     -1.55740731126861
  H   1.73635116130003      0.70992815399449      1.85029988349322
  H   1.37362299288050      2.02289937899456      0.73586140495126
  H   0.06774222957498      1.22090415963626      1.60243721222504
  H   0.51433238493194     -0.90179336453433      0.34863899396234
  H   0.17123368581534      0.39531833861200     -0.77879263317571
  H   2.69809014201504      0.72450481922663     -1.12338330168953
  H   3.33720369705146     -1.41407540021734     -2.22683498768100
  H   1.08425718273518     -2.74254595010389     -0.57388957659242
  H   1.05452483121363     -2.61970163541995     -2.32196864234687
  H   3.15994783898823     -4.01299106034741     -2.44951840727639
  H   3.19115778791435     -4.11701779573764     -0.69295044749872
  H   1.88879440457180     -4.88306577278390     -1.59865361755565
  C   7.01046986182059      1.48842165129500     -1.06007606106996
  C   6.36292054385637      0.16158177262069     -0.57858028441772
  C   6.24010843246926     -0.84670098517612     -1.73382805249257
  O   7.34808095108540     -1.74423960434849     -1.97947777592071
  C   6.11146818068553     -2.32629826982770     -1.50431350966097
  C   6.09179287157928     -2.94548736808950     -0.09602477339482
  C   6.42769160193202     -4.46065794205217     -0.14679345578163
  H   8.00285823224328      1.30090334488856     -1.45799433022393
  H   6.41210192618344      1.94677458884504     -1.84028647692977
  H   7.09673049431707      2.19141242978687     -0.23778417458869
  H   6.96196868562805     -0.27105413393568      0.21500384548484
  H   5.37006772530746      0.34592294244989     -0.17344338520266
  H   5.78171181497666     -0.44088924854629     -2.63431117913926
  H   5.56671376194310     -2.90015616261315     -2.25204311808375
  H   6.81121543385832     -2.43193963401392      0.53230653030796
  H   5.10694864756446     -2.78762635156473      0.33926181824810
  H   5.70590294310104     -4.99288987048404     -0.75727008869770
  H   7.41394768368251     -4.61472996805041     -0.57314274575677
  H   6.41341771884243     -4.88821935071382      0.85057841716181
