36
Coordinates from ORCA-job dimer_009804/dimer_009804
  C   -0.01083131379695      1.24145499341594     -1.29829052505649
  C   0.35783274883668      0.13825661107559     -0.30228206158355
  C   1.29213737954738     -0.98157576050237     -0.74499307587518
  C   1.78156361322310      0.08531248387038      0.23264074795168
  C   -0.77163309641456     -0.24215501304867      0.67722122385170
  O   -1.21691210660741      0.88034134919566      1.41505255283385
  C   -1.97489499831464     -0.84857745839316     -0.12464234614016
  O   -3.08075787678135     -0.37627451973374     -0.01843725750429
  H   0.84205984212543      1.48670250949632     -1.92230607407867
  H   -0.82686119488381      0.92995240553297     -1.94347297579392
  H   -0.31760457644489      2.13492780291652     -0.76136681389559
  H   1.11965838992213     -1.97711352900353     -0.36574887300261
  H   1.66552966527636     -0.95272408327147     -1.75787611235013
  H   2.47908459839193      0.82488083572655     -0.12947584145413
  H   1.92937333740449     -0.19463409620111      1.26481206179047
  H   -0.39765028686489     -1.02359521694617      1.35221452821047
  H   -2.18359327847045      0.96782143754451      1.28344657037153
  H   -1.74160912198075     -1.70760205683006     -0.78197483207366
  C   5.53495795236627      0.69220210148689      1.20541584887378
  C   6.47884071340191     -0.27563342446099      0.48560714535218
  C   7.94785222328600      0.09773298689856      0.31919131322644
  C   7.54266505875374     -0.99979942159290      1.29945025622490
  C   5.82386838680039     -1.06603943523652     -0.66931183056023
  O   4.70299492567696     -1.80949287098573     -0.23374993878350
  C   5.39675380934715     -0.06403317550978     -1.79674095942231
  O   4.24532923307027      0.01850586610821     -2.14933156828279
  H   6.04623947417269      1.17892790849564      2.02870106488493
  H   5.17031895195657      1.46068665249328      0.53042264028560
  H   4.68159234541416      0.14936456831620      1.60219155254179
  H   8.45371057429104     -0.19291946499915     -0.58853132833866
  H   8.27843149783853      1.04382052850297      0.71939205755326
  H   7.60061264703292     -0.78694307352263      2.35614150967092
  H   7.77058586310973     -2.02401220510384      1.04505200139909
  H   6.57569082540911     -1.74246259802035     -1.09520256573267
  H   3.89663540505949     -1.42741398371785     -0.63618721612860
  H   6.20563762584500      0.55990696500385     -2.22260603196548
