36
Coordinates from ORCA-job dimer_001794/dimer_001794
  C   1.20424504845540      0.83903756175472     -0.47485427655411
  N   1.19440378003964     -0.51019634541193      0.11160120146091
  C   2.47686170304208     -1.18773352361870      0.35221633500553
  C   1.60215662149770     -0.72217348724124      1.50691334887274
  C   2.04051211408135      0.45249228125286      2.39276073611197
  C   0.69728119617233     -1.75469961060749      2.22384577490643
  O   -0.60786269342193     -1.21866082398960      2.42737115537232
  H   2.10178548082467      1.41640021104687     -0.24496230360062
  H   1.12840318640935      0.74557977615170     -1.55930670515234
  H   0.33415891008725      1.39286843467313     -0.11958587509940
  H   2.51956834259960     -2.24145573875718      0.10196480669815
  H   3.39713383324764     -0.63708311111148      0.16797033818210
  H   2.70878018043953      1.12417506061925      1.86815768364338
  H   1.16850272163997      1.00951983688298      2.72529472352698
  H   2.55150828349117      0.07980869672963      3.27559267568022
  H   0.66537677523009     -2.67626823750436      1.63040197112178
  H   1.10796698776300     -2.00240112925557      3.20723429767994
  H   -0.95663266458123     -0.95595520244385      1.55334003030626
  C   5.39414129148934      1.92765108708894      0.81995539007146
  N   5.43529029826084      0.50367074320157      0.45140189668482
  C   6.47935099912525      0.03308065422244     -0.47155118189454
  C   6.47645956895214     -0.38176002633935      0.99140062597682
  C   7.55521690057002      0.14458708024803      1.94804242715237
  C   5.94427493331318     -1.78867496515937      1.36575835542891
  O   5.15609116843807     -1.74049288676199      2.55072614191243
  H   6.36024155471856      2.43177750985783      0.75542852819192
  H   4.69995672989899      2.44079630427583      0.15246125164077
  H   5.02357535312476      2.02634616314658      1.84130908404456
  H   6.17027705329083     -0.66956278950292     -1.23731109928757
  H   7.24366786048970      0.73248966521968     -0.79212676319990
  H   7.88933559684194      1.13934456251200      1.67920339561259
  H   7.16803135607726      0.16434084213751      2.96359020878586
  H   8.41479298408517     -0.51889430194687      1.92711935639944
  H   5.38066344277061     -2.19807712937982      0.51935842190478
  H   6.78621027556256     -2.45957173089616      1.56168839025442
  H   4.37506382597290     -1.18259943109371      2.37173165215853
