40
Coordinates from ORCA-job dimer_009841/dimer_009841
  C   1.26952306929474      0.63264025716057      0.40205283674031
  C   0.50723182341508     -0.25885202782516     -0.58668957611038
  C   0.97299717812836     -0.26587077910357     -2.03855532367032
  C   1.22947928272240     -1.47836751874169     -1.15048460523979
  C   -1.01023529529925     -0.41382237607888     -0.35650327857871
  O   -1.33640426081000     -1.07940928921022      0.86421146046887
  C   -1.77616338862469      0.96015637641450     -0.40143216122646
  O   -3.16617445675126      0.74959575044502     -0.17845747253696
  H   2.31462919923948      0.68404802777183      0.11130374885431
  H   0.87543764427233      1.64319662508972      0.40384184948807
  H   1.21796272272733      0.24180504517391      1.41319867199342
  H   0.22780181602261     -0.34808646064172     -2.81484630521639
  H   1.81564444677845      0.35996156543411     -2.29216693165922
  H   2.24045092625644     -1.66838594534784     -0.82551454209929
  H   0.65074687152898     -2.37258705952345     -1.32594401923627
  H   -1.41454437486265     -1.04070446386571     -1.15551465960200
  H   -0.78315633647199     -0.72706770112933      1.58495463796954
  H   -1.35418421995700      1.64316234280913      0.34455346573887
  H   -1.64761787978165      1.42238540750398     -1.38466402776023
  H   -3.25349715585654      0.05226276201734      0.50182396907552
  C   7.26671144368597      1.05415541310803     -0.45942712450094
  C   6.11849736121664      0.36104999725738      0.28547188025652
  C   6.42634989080964     -0.27028553470673      1.63865388337271
  C   5.59703236694019      1.00721564204040      1.56547328805082
  C   5.06748079523398     -0.35938130685165     -0.58330410603605
  O   4.24918061199193      0.53903205690397     -1.33370616625638
  C   5.70295312647558     -1.41359139371465     -1.56191410512978
  O   4.68367320506498     -2.09013045710403     -2.28774761822612
  H   7.89034450110854      1.59609690598982      0.24344964135919
  H   7.89220015470884      0.33117123969897     -0.97370537766742
  H   6.89721884510244      1.76739986875293     -1.18962176469620
  H   5.92655260870991     -1.19100995780671      1.89915397901436
  H   7.43783784011307     -0.20153897205515      2.00913666812938
  H   6.05193531259572      1.93017813190435      1.89099993512224
  H   4.53911053816955      0.94267960814494      1.77094953543392
  H   4.38840306474407     -0.89734611463000      0.08272596704734
  H   4.80600398243223      1.22749204418351     -1.74035865380899
  H   6.40850809650111     -0.91203216163860     -2.23470511302086
  H   6.26369707527061     -2.15662849755406     -0.98662743406843
  H   4.03077431015349     -1.42656158127527     -2.58707569276817
