36
Coordinates from ORCA-job dimer_005568/dimer_005568
  C   1.37324474390314     -0.24942925727008      2.68343488784801
  C   0.60543370171487     -1.02067577798634      1.57863179073970
  C   0.57263951341639     -0.26732175709457      0.26072251889056
  C   0.30358153132967     -0.77766747616014     -0.95781860748563
  C   -0.03814133176097     -2.17854139315302     -1.42135958283546
  O   0.35557226195101      0.20672894253926     -1.89516326193743
  C   0.66839256505595      1.36811389867065     -1.26536927258492
  C   0.81085811739696      1.14782579123421      0.05440322685181
  H   1.42557460454726     -0.84033000118817      3.59199949247153
  H   2.38305187390617     -0.02756755475500      2.35749427284872
  H   0.87474436221683      0.68535395270816      2.91422396982767
  H   1.07241423752353     -1.98896349323446      1.42339372862854
  H   -0.41114753733688     -1.21213419071719      1.91735903782483
  H   0.00682745241685     -2.86003283806098     -0.57771898556314
  H   -1.04113699074826     -2.21291052816488     -1.84373529945074
  H   0.66762999322142     -2.51504967810113     -2.17955736433475
  H   0.75238933095141      2.25934509917654     -1.87484826441342
  H   1.05343512296421      1.87325695628083      0.80917466543927
  C   4.47178661352417      1.89073164038356      0.56583715693037
  C   4.37455585073949      1.37256163650664     -0.89256325037832
  C   3.94054579459675     -0.08070342718018     -0.96465850269809
  C   3.43984827560689     -0.72454310903935     -2.03818295225466
  C   3.15072279444869     -0.26977280084007     -3.45370712853194
  O   3.17889983804457     -2.02145108845155     -1.72169020832418
  C   3.51462485955843     -2.21015202885985     -0.41975760193427
  C   3.99021346806703     -1.06368081270678      0.09989253808091
  H   4.72953743429377      2.94469029655942      0.57743380032266
  H   3.52457855139633      1.76163320041604      1.07704959793634
  H   5.23372086909714      1.34852209011138      1.11452159781984
  H   3.66689903404850      1.98314520380615     -1.44591414976958
  H   5.34090573727914      1.49158790527859     -1.37920548382228
  H   3.36520380281786      0.79042833666709     -3.54405552473016
  H   3.76764232345705     -0.81215129351056     -4.16838869378780
  H   2.10399092471174     -0.43638938623874     -3.70440539861337
  H   3.36511582002914     -3.19898506604590     -0.00423118472272
  H   4.33837586561307     -0.90361851057956      1.10385196271220
