48
Coordinates from ORCA-job dimer_007832/dimer_007832
  C   1.08883469866469     -0.84915440956920     -0.70612382799968
  C   2.40573977343789     -0.11524348749180     -0.34184298593116
  C   2.78171732177603      0.89864561378405     -1.45579788031308
  C   2.29638260166928      0.61849838053955      1.02496232095440
  C   1.88116198056556     -0.31613525745371      2.16443628250828
  C   2.84949832252225     -1.36613473392257      2.69587772571456
  C   2.45789111657028     -0.17906258610593      3.57131404225659
  C   3.49005278434398      0.90092547490329      3.91490534467325
  H   0.25765305396869     -0.15311450304034     -0.71661895289802
  H   1.16670205686706     -1.29971666692488     -1.68931116492367
  H   0.87135529367244     -1.63278162192221      0.00980732257944
  H   3.19712509109570     -0.85319525400383     -0.26279418600487
  H   1.98905277610110      1.62725706477692     -1.58429799577177
  H   3.69158250922805      1.42979498320853     -1.20204213843185
  H   2.93283697623799      0.39115000659555     -2.40212489787507
  H   3.25242640967154      1.07477850455564      1.24741235285549
  H   1.57189944357931      1.42200769466023      0.94208640522782
  H   0.84665943037390     -0.61710599397955      2.12380140296280
  H   2.47015478751926     -2.34463336973039      2.94499591155904
  H   3.84876263990525     -1.37422897035569      2.29256608262104
  H   1.76810675930332     -0.39093550780791      4.37431193629172
  H   4.26675587451418      0.95270199175043      3.16152846309016
  H   3.01757533096314      1.87601256540989      3.99146492837082
  H   3.96309956682799      0.67742192411579      4.86629212222792
  C   6.26435884511710      1.66332950289557      0.83184508602164
  C   6.34054856895489      0.12652446365001      0.63210443949430
  C   6.57486021184876     -0.20724428010343     -0.86601826909819
  C   7.46902652087379     -0.50349887786863      1.49805371936006
  C   7.17196131758471     -0.42273571804771      2.99788761338479
  C   6.37976808612222     -1.53406075964338      3.67855534598871
  C   7.86226733243839     -1.35225924635754      3.99187840702560
  C   8.88945171282495     -2.39480697268751      3.53601212860044
  H   7.20683460690482      2.12429392637235      0.55822894985944
  H   5.48630318422784      2.08970965254512      0.20895437926714
  H   6.04908769185872      1.91790157550357      1.86241516965685
  H   5.39627787069973     -0.30991074565757      0.93829079042451
  H   7.52370411075396      0.19842081221114     -1.19901987651372
  H   6.59054321656229     -1.28026197173572     -1.02139484276468
  H   5.78892266753150      0.21566079111299     -1.48159618157702
  H   7.58851673380381     -1.54022323227229      1.21031135917290
  H   8.40660626370875     -0.00145512876386      1.28126816971200
  H   6.98572246305353      0.57556486537592      3.35901238682292
  H   5.65142568252906     -1.27156312908959      4.42968691348288
  H   6.09966498476810     -2.38480458127891      3.07841606799361
  H   8.08905679561995     -0.91373833351065      4.95198510544583
  H   8.56829344441421     -2.89379512657344      2.62958295774577
  H   9.85172194092194     -1.92796337219617      3.34614686081024
  H   9.02410160949607     -3.14991718287201      4.30500604693911
