36
Coordinates from ORCA-job dimer_007887/dimer_007887
  C   1.83809528358885      2.05655712388609     -0.14983180709833
  C   1.37351364736864      0.58546304286727     -0.32373977367263
  C   2.09929947517279     -0.18960131729430     -1.41552543504183
  C   2.65249706654645     -1.30682875288240     -1.00333676459033
  C   3.43451904129877     -2.30078813778095     -1.84585938602119
  C   2.43186217312317     -1.55866894145151      0.48470142751433
  C   1.67736643482350     -0.27578735527515      0.94253855467054
  O   1.39227336755427      0.01724815118172      2.07168642467625
  H   2.90909764998854      2.10617303080148      0.01460168256693
  H   1.59833009966749      2.63464605676552     -1.03676496893143
  H   1.33735191543232      2.50321848003302      0.70456230089985
  H   0.29719517407724      0.58041124690940     -0.49666246416981
  H   2.13108239084925      0.17662386833684     -2.42953809486119
  H   3.45885442835089     -1.98991419912229     -2.88512276253573
  H   4.45752928737756     -2.38691057679402     -1.48701352098212
  H   2.98092064887543     -3.28789976269567     -1.78950760523632
  H   1.82375838199373     -2.44451377736239      0.66633423008737
  H   3.35966593360044     -1.68641076644221      1.03847768552822
  C   5.45864733769350      0.46997387758583      0.57848941897475
  C   6.36837162709397     -0.77635939668995      0.40236800059134
  C   7.05538645761583     -0.85170355322685     -0.95415869412074
  C   8.36597622592270     -0.89024999976478     -0.89114459032630
  C   9.33282728397328     -0.95985257216932     -2.06149527879736
  C   8.88833797200036     -0.85731672000937      0.54112866688424
  C   7.58277793223128     -0.74701599740580      1.38296408979340
  O   7.51482203821088     -0.64050634858898      2.57736245160604
  H   6.02504126980806      1.38085358717429      0.41536174005167
  H   4.64399075791005      0.43792115832854     -0.13717480430095
  H   5.04560287739662      0.49428904367618      1.58304972755900
  H   5.78024416883692     -1.67157132182914      0.59868183750327
  H   6.48201050878700     -0.85913553090434     -1.86743178876093
  H   8.79662438500002     -0.97429637961958     -3.00468386082340
  H   10.00140891729804     -0.10157057308654     -2.05495893485071
  H   9.94659651045287     -1.85582989982724     -1.99695748861524
  H   9.44094664398571     -1.75879211316995      0.80345184670110
  H   9.54625568609292     -0.01020467415339      0.72933993812828
