44
Coordinates from ORCA-job dimer_006851/dimer_006851
  C   1.24536023765197      1.17711628877602     -1.17058153060111
  C   0.88111937540701     -0.03396846141286     -0.26642864087116
  C   -0.60477720320455      0.10057460247897      0.17613252484193
  C   1.09370630568703     -1.34977761429688     -1.05970216866672
  C   1.13178238881756     -2.57838816074039     -0.12231652140355
  C   2.32398382309892     -2.45946042802742      0.85765582878158
  C   2.39486430221284     -1.06127631368948      1.46505182975259
  C   1.76921617046215     -0.01775143005288      0.97647439591009
  H   2.28764711398167      1.13314453426809     -1.46506387813457
  H   0.63420293446724      1.17346407855911     -2.06606118243500
  H   1.07642717778196      2.10925198541949     -0.64369380587505
  H   -1.25343070875613      0.13073684807570     -0.69204817721914
  H   -0.89990860602675     -0.73451611021018      0.79978316750915
  H   -0.74734602556173      1.01395713377491      0.74237942836246
  H   0.30383413968987     -1.45760380059063     -1.79347743260093
  H   2.03082030510337     -1.29119248140401     -1.60011916080781
  H   0.20693094864318     -2.64245410932583      0.43826357547353
  H   1.22015160588253     -3.48887251337294     -0.70497015271610
  H   2.23388473752033     -3.19657501279594      1.65018521684173
  H   3.25490559103481     -2.67437984643524      0.33676069481398
  H   3.00571268760045     -0.95786584038637      2.35076952662194
  H   1.85305751296964      0.94197660928440      1.46535638688490
  C   5.59959346143490      1.17529018214503      0.74709883854847
  C   6.08170506079767     -0.04878083028884     -0.08041428246480
  C   5.06437708361777     -0.30219588998166     -1.22913419706674
  C   7.49384266540574      0.23939116950745     -0.65177393527753
  C   8.16813736706098     -1.05204247268663     -1.16819890242258
  C   8.36885026671763     -2.04605693344410      0.00149506009631
  C   7.11404787376866     -2.14128687225823      0.86529642566295
  C   6.12730082187459     -1.27896710323130      0.82405251966970
  H   6.26429124979220      1.35503180947342      1.58423421604057
  H   5.58036850667511      2.06363299869626      0.12608041814290
  H   4.60007314374145      1.00123675977575      1.12923777090609
  H   5.00267007763792      0.56692096320297     -1.87392850915805
  H   5.35629940611854     -1.15668280970801     -1.82694152385659
  H   4.08181001887884     -0.49335945183405     -0.81464145181726
  H   7.41864574637295      0.97234691516934     -1.44615932498185
  H   8.10923825712128      0.66877116131495      0.12996129125301
  H   7.55020876969127     -1.50924194387119     -1.93144862669715
  H   9.12395700041507     -0.81835588104813     -1.62414161076235
  H   8.62347735884794     -3.03011779071155     -0.38133613533752
  H   9.20621574956107     -1.72609119355603      0.61777040437420
  H   7.06934653053218     -2.98147228735844      1.54399613355634
  H   5.26252363847261     -1.41436606820259      1.45599898812918
