44
Coordinates from ORCA-job dimer_007816/dimer_007816
  C   2.49193427226536      1.45872303981271      1.08370712220001
  C   2.05043758052337      0.00359830199172      0.76808133502206
  C   1.99210978493112     -0.23860969951921     -0.75951727412308
  C   1.80766842078052     -1.74554421544957     -1.05166620281482
  C   3.02219431208250     -2.54282305892031     -0.51939822337750
  C   3.41560085988892     -2.10977910897846      0.89217040591585
  C   4.35209603295045     -3.06562122945422      1.62778167723951
  C   2.98377948163392     -0.99967348978303      1.44134280868486
  H   3.49239160445310      1.63778039084088      0.70831929839099
  H   1.81895537372891      2.17013468591415      0.61744544245879
  H   2.49195490325039      1.63539214234723      2.15374162477964
  H   1.05128124676531     -0.13712026000930      1.17409122710947
  H   1.17858994476896      0.33427346758111     -1.18990328585123
  H   2.91144910146768      0.11034062198739     -1.21449021735850
  H   0.90415976683041     -2.09577899078907     -0.56490225294277
  H   1.69069585701928     -1.91479454535598     -2.11655335415877
  H   2.79828433894610     -3.60506229027989     -0.51713272556487
  H   3.87333311956051     -2.40848250936588     -1.18226469302713
  H   5.26262972710625     -3.22152103188581      1.05692754576570
  H   4.62024909135339     -2.67236333056133      2.60099438787612
  H   3.87673556218228     -4.03406895727763      1.76221807149317
  H   3.28964427145030     -0.74718373558639      2.44478910717081
  C   6.06752306501945      1.56806849196250     -1.18027485963617
  C   6.10287602565537      0.08439778244053     -0.72118587804558
  C   7.22584657515792     -0.68691413765085     -1.45579874829551
  C   7.43218267495715     -2.07416561704655     -0.80717246546363
  C   7.89805078418359     -1.90407173279275      0.65810449835742
  C   7.06446725694555     -0.86303848848060      1.40390708153931
  C   7.21280215006233     -0.88184673756497      2.92406376596803
  C   6.28112985659257     -0.00771111606060      0.79165678566543
  H   6.99718560931287      2.06383914580922     -0.92396342071442
  H   5.93243778005419      1.62970387239197     -2.25470684018239
  H   5.25402047553729      2.10134873364495     -0.70156566739443
  H   5.14940658350562     -0.37025608761548     -0.97569022733227
  H   6.97317189641901     -0.78976347510962     -2.50496306254823
  H   8.14818449383147     -0.12088506184120     -1.39651920057281
  H   6.49760503804913     -2.62277803721562     -0.83175630766486
  H   8.16298279037095     -2.65000644733201     -1.36450325391047
  H   7.83763993298360     -2.85223386330259      1.18303006890042
  H   8.94303968602818     -1.60453356565387      0.68018988051857
  H   8.24737457684145     -0.70507026968242      3.20782005948431
  H   6.59404509185303     -0.12037521019545      3.38465892013794
  H   6.92534134574866     -1.85062803976837      3.32372340266766
  H   5.70536365695036      0.69785966380490      1.37009164363330
