32
Coordinates from ORCA-job dimer_011120/dimer_011120
  O   0.94236264080100     -0.24256944564163      0.60081903756943
  C   0.15322126059975     -0.50426988357572     -0.54969031543244
  C   -1.32591886050803     -0.16739587514146     -0.18219238658498
  C   -2.38317177468805     -0.86068473647623     -1.11158755673925
  C   -2.60551544790131     -1.87831969224669      0.06945544146975
  N   -1.85051709010264     -0.96326394503130      0.94793962401059
  C   -4.02429866909396     -2.11650775071066      0.48209073764917
  N   -5.10292017804485     -2.29072718418668      0.78831296574275
  H   1.80748424926483     -0.70051517328042      0.52052642903802
  H   0.45981779865242      0.10176238255589     -1.41222273212924
  H   0.20746779245217     -1.55445663522101     -0.85549950919769
  H   -1.43474318665204      0.90895880206073     -0.04947999362172
  H   -3.25652453839719     -0.24852597437319     -1.30985219192308
  H   -2.01462458016344     -1.28607420937246     -2.03799257041838
  H   -2.13196578396198     -2.85103375175518     -0.10624450635457
  H   -1.19678645174152     -1.35643955010077      1.61801162153456
  O   5.89640626332195     -1.28570589178963     -0.43951561069720
  C   5.30432509557008     -2.41472681475387     -1.07596927725393
  C   3.76254754086989     -2.18849177153962     -1.02509357829287
  C   2.91994292029915     -3.50803007215111     -1.11963581793214
  C   2.71080353329726     -3.37279580074584      0.43614057865301
  N   3.24535968862947     -1.99225860774484      0.35113567768717
  C   1.30094572768833     -3.46770404469366      0.92321460098591
  N   0.22211157519967     -3.53233045794781      1.26843685873723
  H   6.86832979723527     -1.33440720460362     -0.50993499119140
  H   5.62024698415560     -2.52224637021528     -2.12193355430755
  H   5.55562124387777     -3.34811063933877     -0.55614477583517
  H   3.48530491861898     -1.38845652768336     -1.71249478681223
  H   1.99853115005213     -3.39927401259752     -1.68279374596290
  H   3.44579723942630     -4.39890369486894     -1.44686946161221
  H   3.32491952277149     -4.07397317446204      1.01224669774311
  H   3.89682616047139     -1.67566443636721      1.06517115147831
