36
Coordinates from ORCA-job dimer_009725/dimer_009725
  C   3.33761763117831      0.89834079679864      0.21975929429076
  C   2.07758902649045      0.63027884305531     -0.64848643022263
  C   2.46908180608386      0.44389565266445     -2.14557157066025
  C   2.81883042130201     -1.08091426627895     -2.23192903989941
  O   2.32214421514196     -1.69712112898533     -1.04097600588532
  C   1.49706512178266     -0.78917967455935     -0.32465325107408
  C   1.07261161162194      1.70167649731507     -0.45518176332850
  C   0.27803193131881      2.54706542449250     -0.29853765080200
  H   4.03909329687944      0.07784617825794      0.10677989116043
  H   3.81553016221860      1.82267972314168     -0.08599080310098
  H   3.06324741212932      0.98122472132263      1.26593698537653
  H   1.62671534885139      0.68350262036708     -2.78520114774144
  H   3.30240782923993      1.07650472762445     -2.42691906537639
  H   2.36272286400781     -1.53825207949047     -3.11695271150953
  H   3.90020797936965     -1.24410293204084     -2.28477304075294
  H   1.54536355289484     -1.02014418512164      0.74273806583393
  H   0.45110424452270     -0.85028736804837     -0.64956063727540
  H   -0.44728070205167      3.31897281340357     -0.15532470120736
  C   6.83715014532065      0.23329251745861     -1.78842062587517
  C   7.13269676047112     -0.59876257251500     -0.50948379154010
  C   8.57211109636401     -1.19255719182303     -0.56261167654036
  C   9.45295072778175     -0.02504796987260      0.00127848520574
  O   8.56710774879525      0.91215196008422      0.61897541812060
  C   7.26409137434155      0.35588294990983      0.72621074028055
  C   6.09242944010121     -1.63296828464036     -0.31072795432992
  C   5.25490233587137     -2.43634372259666     -0.15708004494745
  H   7.58727980920198      1.00918467027417     -1.90269026436257
  H   6.85260854349847     -0.40470932118331     -2.66566752075311
  H   5.86152114595890      0.70119313761978     -1.71616786726776
  H   8.63874996386644     -2.06801031695101      0.07412852783499
  H   8.85584997149131     -1.47828212965471     -1.56858826489268
  H   10.18289378472887     -0.39915408967339      0.72793341056428
  H   10.00439639499126      0.48531302058173     -0.79513594204470
  H   6.52427933279889      1.16029602605853      0.70902649199822
  H   7.14086298716012     -0.21387586735236      1.65548144569189
  H   4.47316056827429     -3.15649388464282     -0.02566416696781
