44
Coordinates from ORCA-job dimer_006173/dimer_006173
  C   -0.59002724830885     -0.92841880945955      0.67196399759064
  C   -0.04459783057189     -1.44116363095498     -0.68849314550314
  C   -1.20281259393550     -1.69234608077207     -1.69059369394666
  C   0.94482202474701     -0.42391911927287     -1.26551004886522
  C   2.40391233345636     -0.40704220430419     -0.81639683436722
  C   2.03527360592932     -0.82033466476728     -2.25333879197782
  C   2.21636900730680     -2.28562364520288     -2.69609716756105
  O   2.25754781255951      0.12168847547907     -3.27401349436190
  H   0.22450183678837     -0.75874122579106      1.36778827740756
  H   -1.12254197284578      0.00632756304460      0.53591261940639
  H   -1.27303537803992     -1.65038938794273      1.10640553996978
  H   0.47321966983608     -2.37665401970389     -0.51408762077160
  H   -1.74237848521994     -0.77058192135271     -1.87811665148153
  H   -0.81765723233057     -2.05824897545847     -2.63575706867944
  H   -1.90022263097043     -2.42219598736197     -1.29381256763984
  H   0.51152452772721      0.54674854439696     -1.45802644446036
  H   2.87967796993880      0.55100071315341     -0.67380402900146
  H   2.73217810107329     -1.17517507100710     -0.13467228585107
  H   3.22225941099233     -2.44166794510228     -3.07579054381923
  H   2.05757423654577     -2.96794193035621     -1.86962908335899
  H   1.51197301083117     -2.52535187783872     -3.48737951896799
  H   3.19127273763321      0.07789142843226     -3.55405834209310
  C   5.87056305180426      1.08604683894223     -2.36856482347834
  C   5.82875227689916     -0.46472002580925     -2.29550021991941
  C   6.06316725299343     -1.09849408374653     -3.69319831550468
  C   6.88537175093868     -0.96054482778105     -1.30448128854304
  C   6.59838608190278     -0.98261319231973      0.19506909073897
  C   6.76031149502723     -2.29895217748320     -0.58562184207239
  C   5.53379371091324     -3.20686707991333     -0.80144415288459
  O   7.97661127595076     -2.99236878762438     -0.44501313918487
  H   5.70077660416963      1.51378789877967     -1.38628860988013
  H   6.83941332180239      1.42029687374066     -2.72293650069704
  H   5.11248560268734      1.46652581931787     -3.04457150436859
  H   4.85224564840531     -0.76008987843022     -1.93404843000906
  H   7.04337925697384     -0.82470911521118     -4.06791683814236
  H   6.01395231394753     -2.18020373268734     -3.63503249808324
  H   5.32241342209753     -0.75624412278502     -4.40764681958436
  H   7.89820778557179     -0.70179662612232     -1.57658530438005
  H   7.39100617561743     -0.69197511955983      0.86731668742282
  H   5.60843909914476     -0.70932640458639      0.52525892041523
  H   5.42362356134796     -3.89272764649379      0.03380912003421
  H   4.62483883096025     -2.62318472428915     -0.87920908815180
  H   5.65421293720258     -3.79090623390784     -1.70919227850960
  H   7.95239465149890     -3.52347399788699      0.37343448711597
