38
Coordinates from ORCA-job dimer_006978/dimer_006978
  C   -0.45309486209823      1.22545169074983      0.19651509492185
  C   0.54677359143008      0.03938017110743      0.17741640696815
  O   1.21442821634949     -0.00498553439057     -1.09731659678569
  C   2.56810325402012      0.06317036386584     -0.84498210278318
  N   2.94664896319689      0.12669433051322      0.35021345638224
  C   1.74233910099323      0.10729994412564      1.22675553419259
  C   1.75056393657578      1.37508084206742      2.12041282935465
  C   1.77674254182377     -1.16657777076219      2.11595407168700
  H   0.05735557021350      2.16508272430842      0.01720634844671
  H   -1.19581203445882      1.08315782675706     -0.58334095354987
  H   -0.96149583320784      1.27715691106901      1.15389264685127
  H   -0.00403547136114     -0.89617666823111      0.30796828115258
  H   3.21487112765342      0.05820023677515     -1.72721937773909
  H   1.78681398660435      2.27700720781107      1.52036555355137
  H   0.86705751074874      1.40545805574836      2.74839189608387
  H   2.62739291714406      1.35380856708598      2.75948316342287
  H   2.65625656146005     -1.15240510644446      2.75158792059365
  H   0.89294354424071     -1.20493544649555      2.74462857977908
  H   1.80677073720441     -2.06044718298276      1.50161976846698
  C   6.17354709835158      1.28132367861504     -0.15703255188984
  C   6.47699917510977     -0.23985178959068     -0.17825186261623
  O   7.85180038871647     -0.45078509199706     -0.55260970082556
  C   8.45963246637314     -1.09672259684968      0.50661477502976
  N   7.75193205780777     -1.41812109066096      1.49195386408386
  C   6.34848695706690     -0.99641049737565      1.21510755902795
  C   5.82703053842543     -0.11951653143457      2.38050640371070
  C   5.46173136976940     -2.26408703116516      1.07257244076076
  H   6.83017241038505      1.79512016994290      0.53550187385462
  H   6.32836307102560      1.69527406262586     -1.14859359937231
  H   5.14166669154365      1.44617197955996      0.13811144937331
  H   5.83875986114243     -0.72396618506991     -0.92079829398156
  H   9.53139838444496     -1.27978191774701      0.39485564915487
  H   6.47198215088019      0.73475547409546      2.54745446285611
  H   4.82441610200962      0.22831492578396      2.15471604069828
  H   5.80221439900495     -0.71252998473522      3.28832835892282
  H   5.46838198271709     -2.82745718440332      1.99952463439506
  H   4.44322611161014     -1.96779451661000      0.84404260261246
  H   5.83279828108240     -2.90059423966173      0.27652272220769
