40
Coordinates from ORCA-job dimer_010855/dimer_010855
  C   -0.16403501733618     -3.20785392898049     -1.18074621936716
  C   0.59513652077437     -2.00590817544740     -0.55505987113347
  C   1.96819929854754     -2.44702059262680      0.00873109865620
  C   2.81496770367627     -1.21055203321622      0.38853416748351
  C   3.11905599228826     -0.34453992913614     -0.87169772934891
  O   4.18467402690584     -0.89085303548384     -1.65569724305607
  C   1.85200428736760     -0.15998437628086     -1.72144596727891
  C   0.76672611533700     -0.88432650405218     -1.57964399535157
  H   0.38972455106705     -3.61049220885257     -2.02182670409670
  H   -0.29268600715372     -3.99678822365045     -0.44721466190463
  H   -1.14368009343912     -2.90151606838166     -1.53195520829269
  H   -0.00421101531637     -1.61913172405660      0.26665277416889
  H   1.81994530145719     -3.08284011376142      0.87453529528050
  H   2.48955727487895     -3.03929112403448     -0.73419529461552
  H   2.27192577563698     -0.60731099015078      1.10834013347900
  H   3.75194959677770     -1.51073074329294      0.84491389781607
  H   3.47350488653637      0.63804766796427     -0.54705057596016
  H   3.88429498396114     -1.72445385036027     -2.06298345956702
  H   1.90570389497449      0.60969998166748     -2.47865164848663
  H   -0.09090206923991     -0.70001743924095     -2.21299617257138
  C   6.76840179521962     -1.72896016476131      1.79969005338802
  C   6.76196690953413     -0.73555601592232      0.60683394853714
  C   6.21166634303086      0.64786008285727      1.02800331594760
  C   6.39978449099548      1.65433522255482     -0.13011670336155
  C   7.91578077100684      1.87615432297304     -0.42061846523125
  O   8.51713704904818      2.78484794911648      0.50844226437734
  C   8.66723302765987      0.53489545004681     -0.43834368668239
  C   8.16308314245091     -0.58985713877993      0.01310278821159
  H   7.42552872333813     -1.37509093315032      2.58649002408485
  H   5.77099409831145     -1.83376009399819      2.21233801607778
  H   7.11307305650688     -2.70723251799023      1.48231833505925
  H   6.10981473743168     -1.12708924003779     -0.17381340489058
  H   5.16329998350521      0.56070681666900      1.28669794696890
  H   6.73098193227306      0.99259884124008      1.91448598593804
  H   5.92221529040297      1.26045785156287     -1.02236814931607
  H   5.94289445138608      2.61022908593226      0.10338645479223
  H   8.01992692618442      2.35391895495895     -1.39941521305541
  H   8.51879831563490      2.37388128079638      1.39275316890579
  H   9.67046557872513      0.56793945507363     -0.83889688307670
  H   8.74765636965203     -1.49889179776680     -0.03171641252803
