36
Coordinates from ORCA-job dimer_007586/dimer_007586
  C   1.28942830965635      1.00014365939403     -0.32166075229412
  C   1.50563145419241     -0.52314637888847     -0.07760385964097
  O   2.57088308573845     -1.06321978842441     -0.84291226337293
  C   1.72279787098157     -0.81293332053592      1.45109424680707
  O   2.74880643594439      0.00933385803037      1.94598311025403
  C   0.37479706642123     -0.86419672613263      2.28029031273004
  O   0.46479076211070     -2.30909341374472      2.36146485435186
  C   1.78048488692452     -2.36241445780898      1.75510041207179
  H   2.16805371972387      1.55879619080154     -0.01584532249749
  H   1.10380060115347      1.18375174680298     -1.37538872421183
  H   0.43957345455923      1.35844559819593      0.24972530629033
  H   0.60002286134680     -1.06200176566405     -0.37227209516570
  H   3.30519418277237     -0.42007807384959     -0.93616534151686
  H   3.29942461986941     -0.46741988504176      2.59772761577791
  H   0.43684719030146     -0.38065888626562      3.26158789534993
  H   -0.52490187624968     -0.51849053044001      1.76295734276060
  H   1.82894075972841     -3.01160740180165      0.87459619672899
  H   2.55999916571874     -2.65885926091448      2.46742109041896
  C   6.21947379207365      2.14772860843719      0.34612912956771
  C   5.37561654251364      0.83890412598769      0.33624992502330
  O   4.96772275264116      0.47381358770857     -0.97713316892800
  C   6.16848535342475     -0.33581249584668      1.00014216990465
  O   7.39571150895258     -0.44476068782064      0.32687573080817
  C   6.13473265238316     -0.27268979059330      2.58155746664690
  O   5.13852176600521     -1.32808525839232      2.60402383934807
  C   5.29565743267809     -1.63947665300300      1.19258248266213
  H   7.13873187754384      2.01159559374622     -0.21504964644200
  H   5.64656015521125      2.95483902929649     -0.10032144256526
  H   6.47479517220934      2.42441421266453      1.36376712000214
  H   4.45429172793675      0.98433967446818      0.91098511636929
  H   5.75474233477930      0.27317539009686     -1.51853892779709
  H   7.91424592771840     -1.19618296188030      0.66890839570212
  H   7.07087603376803     -0.57123864647699      3.06803093715572
  H   5.78227140674133      0.66410804237772      3.02427856862849
  H   4.35141952984646     -1.68471546722695      0.63867256057625
  H   5.85162048267890     -2.57142946725581      1.03689971849570
