44
Coordinates from ORCA-job dimer_010780/dimer_010780
  C   -0.25187502446894      0.91787518363223     -1.34476536428020
  C   0.72146309693270     -0.20624080011141     -0.94183800387068
  C   2.23966811639917      0.14192819799368     -0.75487878605163
  C   2.57099121125462      1.63143742379221     -0.52421523115263
  C   2.24223794888655     -0.74406582316545      0.55463313594034
  O   2.90486599131944     -0.27872948798352      1.70593949409855
  C   0.66212423954656     -0.76757689445981      0.52218535670714
  C   -0.01776382950077      0.14230814301873      1.56766080779975
  H   -0.19206014267603      1.76190653756217     -0.67006212517583
  H   -0.02591141274935      1.26916241758810     -2.34645937710907
  H   -1.27328058988627      0.55115623584597     -1.33777892235466
  H   0.62093548900212     -1.02249669402325     -1.64790628304588
  H   2.87877836354146     -0.23907523816748     -1.54244973923031
  H   1.95134602470104      2.07336220157238      0.24544605445181
  H   3.61023797108529      1.73892932661038     -0.23024213101040
  H   2.41585622899451      2.19549101505682     -1.43795142546566
  H   2.64581380999491     -1.73721596159182      0.34569134441676
  H   2.56996344293396      0.60182922025368      1.95129147029698
  H   0.23874818600134     -1.76216069903358      0.59745292022457
  H   0.35983695774777      1.15628635000951      1.53400051671339
  H   -1.08729021958736      0.18218914058045      1.38936412214108
  H   0.14507660387403     -0.25041793696653      2.56689200462768
  C   6.47827219424522      2.13092142922951      1.12089230850608
  C   6.22017976661286      0.61230458991785      1.16193690543650
  C   5.98749170374342     -0.15429472190816     -0.18596940789744
  C   6.47984937841423      0.55196975118703     -1.46709657125385
  C   6.93368066715986     -1.30141850262520      0.34844647732231
  O   7.88261781803793     -1.88011352128099     -0.51577929953350
  C   7.41613490673079     -0.34207893744162      1.50814708897769
  C   8.82998472294146      0.24595003959160      1.31012096167620
  H   7.29459018771692      2.38249283131439      0.45642144611554
  H   5.59291131925032      2.65705212954287      0.78032843050184
  H   6.72571846234778      2.49617895810409      2.11237970261646
  H   5.38826841157034      0.41178888775550      1.82907586808613
  H   4.96396091716401     -0.47402022511561     -0.33151132527519
  H   7.49746868039532      0.90866060860074     -1.37213440118388
  H   6.43503385682660     -0.13002610973029     -2.31073173257655
  H   5.84957155541595      1.40666409728241     -1.68891642701056
  H   6.34096976334480     -2.12371727475959      0.75501279812965
  H   8.44508254890849     -1.18763878534260     -0.90551266812078
  H   7.35671971401562     -0.78514545706130      2.49510978019254
  H   8.94556727379585      0.71237310122621      0.34016235254711
  H   9.03178161874622      0.99880541868503      2.06475505033063
  H   9.57663406926859     -0.53677816518536      1.40388082374193
