36
Coordinates from ORCA-job dimer_009484/dimer_009484
  C   0.82834626190275      1.28030515327765     -0.26154916731744
  C   1.14059507259391     -0.21222162293506     -0.05475903091474
  C   2.06563221358633     -0.92632862317627     -1.09558641631847
  C   2.87034239839476     -1.57472750437719      0.07609307890616
  C   2.18212464582851     -0.56281612149796      1.08075366327986
  O   2.97551195656295      0.57163312946169      1.37345952612864
  C   1.60973882411165     -1.17101137180208      2.31956999105395
  C   1.16407805732979     -1.65194428325508      3.29090496138277
  H   1.74538557265685      1.84478998981595     -0.39218893293818
  H   0.20632857957726      1.41194542348323     -1.14181364027865
  H   0.30082167713557      1.68075345710331      0.59881362545735
  H   0.22704087814569     -0.77515924860284      0.10340216741681
  H   1.57731969928307     -1.61022130584369     -1.77951854575889
  H   2.66051059099209     -0.22086007845520     -1.66416344836574
  H   2.58727714174105     -2.60275552201785      0.27311631296077
  H   3.94941541279120     -1.50308954446760      0.02586294455895
  H   3.65790200757757      0.32485890121409      2.02711541002920
  H   0.75332204095277     -2.08806676260171      4.17647542344793
  C   6.98419079538500      1.80803267821693      0.41402333548893
  C   6.30899412237678      0.43097114833248      0.27844754865060
  C   6.77220215102545     -0.48744211219085     -0.90155412855765
  C   7.00311675317697     -1.66684776666837      0.09718059439340
  C   6.77903088659344     -0.67307926864440      1.31014713035866
  O   7.97735912987607     -0.27331265707010      1.95177539569986
  C   5.75407633764352     -1.11644960073586      2.30457040382879
  C   4.96016951073322     -1.48258982568541      3.08583026638592
  H   8.06419797145211      1.70785999908500      0.40640459361139
  H   6.68463238893267      2.44635082567266     -0.41197797100469
  H   6.69126732565198      2.28586085026489      1.34394028410085
  H   5.22950169849196      0.54084003727835      0.30002274528593
  H   6.03150361947500     -0.66514266814857     -1.67252650042030
  H   7.68803419188958     -0.14211442096662     -1.36695757385879
  H   6.25068121966805     -2.44577444888453      0.04260574318452
  H   7.98879812949463     -2.11886955384015      0.07678259134234
  H   8.28356309156557     -0.99029395193846      2.53938634537537
  H   4.22892764540365     -1.81772532940034      3.79265127340448
