36
Coordinates from ORCA-job dimer_006467/dimer_006467
  C   0.81063871208509      1.38558978508274     -0.22034582125344
  O   1.01944224438119      0.03258835863870      0.15629404375434
  C   -0.08925636454035     -0.82241520772997     -0.02563991179252
  C   -1.30714614832878     -0.42787388460539      0.85894754415647
  C   -0.49911205030708     -1.10615088826883     -1.52858155558829
  C   -0.30684838017940     -2.62537165886402     -1.23817674362996
  O   -0.57761459813302     -3.62617767465317     -1.83190047893944
  C   0.31736481974826     -2.33186088183847      0.16068601818575
  H   1.76141792380287      1.91236266575356     -0.10053766494894
  H   0.49256671388374      1.47796253863612     -1.26634579058355
  H   0.06683636213880      1.88520003789680      0.41113789134185
  H   -1.73918501180018      0.51380978366133      0.53994304380915
  H   -2.07304803093972     -1.19260460764687      0.78527966640369
  H   -1.00062550741473     -0.34139671317400      1.89676375637541
  H   -1.49296178699826     -0.79343366555353     -1.83219411206766
  H   0.23658561087567     -0.74485813716059     -2.24475939577356
  H   1.39392347228114     -2.47791089623999      0.16897006685515
  H   -0.12495937340115     -2.85008166260763      1.00575094108299
  C   6.96737001005475      0.86120489225667      0.07462530524302
  O   6.27857657323488     -0.37973812497134      0.05122963633637
  C   4.87175745763375     -0.29894234565212      0.02548668904720
  C   4.26849895087643      0.42968746394307      1.25823577707591
  C   4.25524277985934      0.19840679591963     -1.34662197937784
  C   3.46489738856896     -1.14287529588468     -1.41720631107286
  O   2.59128981826216     -1.55473201406089     -2.12129299747844
  C   4.24360882094005     -1.72428333905729     -0.19819853383590
  H   8.03013722271053      0.64780360518242     -0.07792609560605
  H   6.63263305068839      1.53615853526523     -0.72289990973110
  H   6.85615317576070      1.38061058335272      1.03395879794243
  H   4.50663715699424      1.48702244147451      1.24565404468712
  H   3.18787991182451      0.31736169227326      1.24788048831297
  H   4.65857046166654     -0.00760696519176      2.17189260401639
  H   3.66150407323770      1.10522560238740     -1.32155457786143
  H   4.99818319006406      0.27314883431889     -2.13750213383259
  H   4.99065082760580     -2.45804631835228     -0.49683581264981
  H   3.64981652286258     -2.12428533453014      0.61713751139723
