36
Coordinates from ORCA-job dimer_009716/dimer_009716
  C   1.75905993070504      0.88837591210616      1.07552021893762
  C   1.24642916331580     -0.44244638235225      0.48087726975107
  C   1.00037906219838     -0.38444423508619     -1.06373650865005
  C   1.48737544888242     -1.75597854159484     -1.62463501443185
  C   2.34984580472610     -2.30470368857705     -0.48724187953129
  C   2.23598311696799     -1.60423703207458      0.61444316643542
  C   -0.07380775735705     -0.85656047127543      1.19539584740727
  O   -0.55932740045584     -0.25457863016204      2.11991924339319
  H   2.67536496691935      1.19190725703884      0.58354924579311
  H   1.01753123686207      1.66954223860782      0.94293274403369
  H   1.95146350523986      0.78012586387957      2.13775820652198
  H   -0.03785741205614     -0.18700330590976     -1.30373794473997
  H   1.59117504072338      0.42081978481219     -1.48705221758488
  H   0.65635397207171     -2.42511133996493     -1.83660139491489
  H   2.04726724796203     -1.63962888813294     -2.54845149892690
  H   2.96101811400693     -3.18630102295275     -0.61399544449237
  H   2.73261331578160     -1.80233994034693      1.55206662645382
  H   -0.54054110261185     -1.76812239857457      0.77690400863515
  C   6.86289258036792      1.69173382712687     -0.87128791016049
  C   5.94555272902592      0.51557432891148     -0.46943090549267
  C   6.64190494797968     -0.88211628009658     -0.54719743136053
  C   6.09665701095970     -1.69287742913033      0.66772128396957
  C   5.55289669306676     -0.59797275847609      1.58618274521127
  C   5.48451367422632      0.56732328424789      0.99135358522517
  C   4.67654136975159      0.50082956664328     -1.36931336424228
  O   4.38868209171312      1.36910742923716     -2.15520731421338
  H   7.72749716815273      1.73171467575332     -0.21781325717143
  H   7.20323384329173      1.57442684318277     -1.89488909195447
  H   6.32545654919837      2.63168280509873     -0.79900500991794
  H   6.46055246649801     -1.37848044996618     -1.49333116775851
  H   7.71267860321629     -0.74572173264007     -0.44800634305305
  H   5.30308081053948     -2.37631782325263      0.37451991329160
  H   6.87284054245228     -2.28489354841830      1.14369599831549
  H   5.25533836788146     -0.80472935252847      2.60398144085321
  H   5.12244509449608      1.48673019580289      1.42548739369548
  H   4.04220820330038     -0.39096076093601     -1.21791723932718
