48
Coordinates from ORCA-job dimer_006857/dimer_006857
  C   1.32612593736665      1.68195089725503     -0.01808119725362
  C   0.74890285289692      0.24089096671385      0.00838576032753
  C   -0.79939080456569      0.33350781174054      0.03053370946053
  C   1.23449166610041     -0.52185281129294     -1.25348175989849
  C   0.81524897655939     -2.01236268301042     -1.24257392955709
  C   1.32571337970444     -2.72184348905588      0.03679360896851
  C   0.85377541707394     -1.98042590123851      1.31285880057375
  C   1.27258412812449     -0.49032944339753      1.27367204245895
  H   2.40906327930101      1.65932184026787     -0.03279837458306
  H   0.98320659573755      2.21225658740750     -0.89890197551857
  H   1.00778211209367      2.23452839686301      0.85825666050841
  H   -1.15472745218715      0.85759809421811     -0.84891812844520
  H   -1.26048115237744     -0.64443619421444      0.04954992467433
  H   -1.12818780693843      0.87916852082774      0.90718398439008
  H   0.84597264599633     -0.03478925891500     -2.14019696905177
  H   2.31543858070965     -0.45973323486130     -1.29858466159782
  H   -0.26342085649571     -2.09312251498604     -1.29888363312251
  H   1.21686894738109     -2.50762006116299     -2.12012198893617
  H   0.97733567242078     -3.74883403995901      0.05481016758185
  H   2.40917145986975     -2.74914380890430      0.02087297575723
  H   -0.22264829517660     -2.05967260092777      1.40374088807911
  H   1.28209747223839     -2.45357560051705      2.18998152436095
  H   2.35431185235874     -0.42746831482592      1.28412909222011
  H   0.91099202918483      0.01906101159445      2.15922311376214
  C   5.27107855312079      0.77735181038937     -0.00905592962103
  C   6.12684985468027     -0.51782877567612     -0.01789430999558
  C   5.17078182031541     -1.73866168102441      0.00239621414833
  C   7.00394252684181     -0.53246696415330     -1.29884819650483
  C   8.00517129563052     -1.71310154029490     -1.32022912277896
  C   8.90435628770429     -1.69379993044338     -0.05874718663889
  C   8.04620547659493     -1.70415511899229      1.23109355175755
  C   7.04539179265242     -0.52301572075364      1.23368924417740
  H   5.90690143759032      1.65483789028075     -0.02157124649506
  H   4.62549363496382      0.81155251298361     -0.87898059410323
  H   4.65164897989646      0.81757669767178      0.87946275763105
  H   4.51887387707335     -1.71681896886253     -0.86285736194553
  H   5.71351795896784     -2.67401389054616     -0.00822681367901
  H   4.55491837787777     -1.71592731859758      0.89365772819494
  H   6.36301024718087     -0.57405029620218     -2.17179602124491
  H   7.55702054335760      0.39815510233070     -1.34996636025464
  H   7.46928062874847     -2.65311691171478     -1.37112583113360
  H   8.62067515338142     -1.64910424155761     -2.21114727592610
  H   9.57436451364115     -2.54676032809114     -0.06659317355736
  H   9.51853232579293     -0.80003689930001     -0.07172845921482
  H   7.51173496195008     -2.64342329932708      1.30550235062424
  H   8.69004894574305     -1.63459914667741      2.10132418670138
  H   7.60031079715354      0.40755769358548      1.25947799813380
  H   6.43332837176288     -0.55745884464596      2.12741021656568
