40
Coordinates from ORCA-job dimer_006888/dimer_006888
  C   2.23885424108207     -0.18089267705110     -0.08243596236391
  C   2.23008397737744     -0.01609378697374      1.43973379924282
  C   2.62066064523570     -1.28493271422233      2.21044676878739
  C   2.66995635454653      1.33141703033141      2.02326630309032
  O   3.01181508401730      2.35770535853622      1.13561394749626
  C   1.19861334766055      0.89640082650855      2.11090844046940
  C   0.18198394749646      1.72389803646967      1.29620803334351
  O   0.31429405338939      3.12462220136857      1.57411732761587
  H   2.15808743730156      0.77713691561026     -0.58261566256934
  H   3.17742099061998     -0.63116597374407     -0.38751221580924
  H   1.42598890468313     -0.82388833089060     -0.40568126249997
  H   3.60847416008236     -1.61871053047613      1.90955357619223
  H   2.63201487857750     -1.10366999282660      3.27954762170786
  H   1.91426773417504     -2.08407916191735      2.00632099310833
  H   3.25130047023193      1.30289649238346      2.94357295200400
  H   2.35586993870610      3.08097792223742      1.20901329275237
  H   0.84670372667618      0.57922934268832      3.07957353381539
  H   0.35889382133114      1.60689855233417      0.22467850248399
  H   -0.83675822876398      1.36948387581550      1.49538728579226
  H   0.05820298507458      3.29537470627919      2.50003908361539
  C   6.33093339213854      0.07341429173735      1.29030934489347
  C   6.23690707948737      0.06874460562159     -0.23805952442054
  C   5.75151667072079      1.39910618312951     -0.83161908311516
  C   7.28750738048483     -0.71783482550141     -1.02905776680701
  O   8.25526671880049     -1.43845484456979     -0.31856026398485
  C   5.83053165681991     -1.20646253916444     -0.98475635555792
  C   5.57370256573630     -2.54113083380499     -0.25561234969202
  O   6.41018675653454     -3.58457195533487     -0.77413142856944
  H   6.87223228657876     -0.79061372547249      1.65773848689499
  H   6.86668177900835      0.96125227504315      1.61097742779552
  H   5.34017142220620      0.09908533524643      1.73247212943592
  H   6.45498249704619      2.19012268200062     -0.59103106439382
  H   5.66281180935341      1.33625961574234     -1.91000375965677
  H   4.78354884708935      1.66939706704003     -0.41333211073821
  H   7.63237488637808     -0.27461789424589     -1.96174077725722
  H   8.13617397202401     -2.39460046379732     -0.49069540833021
  H   5.24749222046493     -1.06528985846387     -1.88049748572683
  H   5.81849666085516     -2.45390202557831      0.80518083904762
  H   4.51240275978733     -2.80992645009228     -0.32193341748375
  H   6.17712671098343     -3.74769577999615     -1.70743124960886
