44
Coordinates from ORCA-job dimer_006208/dimer_006208
  C   1.33847006944416      1.00006902776794     -1.48744243558375
  C   1.71060029847060     -0.32333192433439     -0.84030263939740
  C   2.16187222160845     -1.40074561720162     -1.43512595131539
  C   2.47270022362096     -2.52426061398580     -0.45211381978750
  C   1.77344032638385     -2.05031663867051      0.86286040808321
  C   0.36161946956391     -2.68768731778377      0.94312880331170
  C   2.59319581627251     -2.40973272306140      2.12499556715628
  C   1.62645353956965     -0.50814918756134      0.67361691554160
  H   1.95318565677534      1.80468858670473     -1.09025122169160
  H   1.47635928009334      0.95946227320716     -2.56267588955227
  H   0.30017956238663      1.24842058853195     -1.28033709121871
  H   2.33542986877878     -1.50348441553453     -2.49434344987394
  H   2.09970287330058     -3.48804056658896     -0.78014353105944
  H   3.54503777979383     -2.62187466560912     -0.31274265062193
  H   0.43407316696066     -3.76689998123431      1.01235840632243
  H   -0.17211927214027     -2.32429788396352      1.81364084922270
  H   -0.21183557268528     -2.43719786934862      0.05780237300386
  H   3.57797835386915     -1.95966337752686      2.07425940710904
  H   2.09567428963707     -2.04884333581481      3.01820896839913
  H   2.70896840630624     -3.48441292360938      2.21093680108087
  H   2.43430596637299      0.02753319558355      1.16235496613563
  H   0.69555031611271     -0.13618780491951      1.08567158676731
  C   5.19411339044353      0.63781198093615      2.35021975621651
  C   5.77975461817259     -0.24187247493835      1.25832701330973
  C   5.34412000055600     -0.38605485242251      0.03041597783523
  C   6.22409825391021     -1.32048327873959     -0.79376068197937
  C   7.10006119982279     -2.03196841806829      0.28809035527629
  C   6.43305170987385     -3.37560767187162      0.68303776553542
  C   8.54617666252742     -2.28632271158339     -0.20127145509301
  C   7.04716892189310     -1.05849692144552      1.50748865241091
  H   5.93871275702221      1.34485330526969      2.70851432307124
  H   4.33892820861618      1.19564356131567      1.98469146631599
  H   4.87807184665524      0.03651339777471      3.19963227133308
  H   4.48300358257657      0.10410937559806     -0.39470026379869
  H   5.65319364813632     -2.03008986924697     -1.38198385718114
  H   6.83965809476414     -0.75133118683743     -1.48508070761006
  H   6.38676450366790     -4.04341585775455     -0.16939072555187
  H   6.99748080798240     -3.86350731424837      1.46923926660475
  H   5.42469179236241     -3.20415888009000      1.04101370783467
  H   9.02388271924480     -1.35395416742153     -0.47962216438449
  H   9.13599337821885     -2.75372497769204      0.57949966622216
  H   8.54544305221474     -2.94192076775827     -1.06511865948474
  H   7.91446143265607     -0.40491351617877      1.53164205286294
  H   7.01933526918627     -1.59193170864377      2.45069219622259
