40
Coordinates from ORCA-job dimer_006237/dimer_006237
  C   1.82069424480000      0.28666079483212      0.41830239965583
  C   1.92464934452191     -0.90873958596619      1.40360460180410
  O   0.75158021316491     -1.69024262168487      1.40662839245200
  C   3.30891274198024     -1.67001924811077      1.30953026606574
  O   3.73556283191618     -1.05462847986558      2.54721419322908
  C   2.41411960920775     -0.54167197084359      2.86418189114367
  C   2.43635757979422      0.95123186960562      3.27077621771392
  C   1.72403616381340     -1.40246080407449      3.95486933735045
  H   2.73977652696096      0.86032504130076      0.41969824355604
  H   1.65159284159631     -0.07671563535235     -0.59109789689558
  H   0.99749849052485      0.93709027704309      0.69710024603495
  H   0.49036624994282     -1.90203144304878      0.49159791571523
  H   3.21408045383429     -2.75821461637639      1.39079597811790
  H   3.94979917211072     -1.41346734407897      0.45890865466423
  H   2.97987692896029      1.55055266840414      2.55083531737072
  H   1.42125011036752      1.32777108532032      3.34817303716120
  H   2.91781156070103      1.05649635981286      4.23799374303403
  H   2.24354089454123     -1.27616161526057      4.89941746455212
  H   0.69034620003756     -1.09395552653483      4.07452087122646
  H   1.74105969098133     -2.45138357851927      3.67981812962751
  C   5.93654302521598      1.15743605340460      1.09123525804112
  C   6.46240770923984      0.14560142115350      0.03828608001288
  O   5.45133137209619     -0.22438173984478     -0.87770867719593
  C   7.86945365332285      0.52385257671984     -0.57943771525163
  O   8.49837548953854     -0.53440695846448      0.17428752539324
  C   7.23915846279145     -1.10350745413173      0.62754694860568
  C   7.20019211551161     -1.30434579761845      2.16173785926100
  C   6.92484690098432     -2.42626555159765     -0.11897772254378
  H   6.74182401246493      1.48723434337380      1.73706077466632
  H   5.51963125123545      2.03020565791825      0.59853545157456
  H   5.16845453841537      0.69003855314085      1.70292946255366
  H   5.05638369312880      0.57604386742922     -1.26989655839223
  H   7.93084775963740      0.36867562581219     -1.66235634962786
  H   8.25602552088639      1.51660053361092     -0.33219053484264
  H   7.57852846582258     -0.42878368408952      2.67549810141876
  H   6.17955171120179     -1.48946469937107      2.48899442457423
  H   7.81701516909252     -2.15441231157959      2.43368657546780
  H   7.66938883913079     -3.17071254614953      0.14502657856829
  H   5.94525901114298     -2.79416456452672      0.16666735286440
  H   6.94203606938120     -2.27519463179175     -1.19265279872786
