36
Coordinates from ORCA-job dimer_009508/dimer_009508
  C   1.53707580762315      1.52302872977314      0.17401839506087
  C   2.24603217807184      0.22717942623641      0.64210851290996
  O   3.32270410412649      0.49197545535387      1.57973572758089
  C   2.63083950388472     -0.12855673929795      2.69203465026404
  C   1.51186467124275     -0.64202632432077      1.73298965941244
  C   0.04686527953825     -0.29994898434349      2.07583682022916
  C   1.63787262413708     -2.16191500842929      1.44802250520821
  O   2.27601843795173     -2.91566662329798      2.13965404564874
  H   1.26226571462774      2.14181133640107      1.02097287915800
  H   2.20731309400674      2.09213153241792     -0.46419085452585
  H   0.64238230153981      1.28145211595401     -0.39215982625945
  H   2.59122685061616     -0.34472996314613     -0.22547631870734
  H   3.21542656313709     -0.91180404582990      3.18564409186419
  H   2.29311462518589      0.59958578308765      3.43679118240274
  H   -0.06090091931327      0.75585409552368      2.29661189024508
  H   -0.60707637105942     -0.54672143565901      1.24473597931896
  H   -0.27692154102788     -0.86500310010859      2.94540093506283
  H   1.07625734540656     -2.50629581790725      0.55875773220652
  C   5.89186442132573      1.85244394680057     -0.23235859944083
  C   5.90902671161568      0.34630098995786     -0.58125671346862
  O   7.11348226685962     -0.08285263539300     -1.27295467544914
  C   7.40034333105212     -1.12790493033702     -0.31571329718258
  C   6.17711690561817     -0.68155177970403      0.57289988672463
  C   6.54613762601886     -0.11405334525046      1.95636631303826
  C   5.06931923718117     -1.75685547070567      0.70233949144632
  O   4.25980088517772     -1.98463277533880     -0.16326025730500
  H   6.81293153640916      2.14749379784932      0.25692845592902
  H   5.78050894039954      2.43922920411430     -1.13925645393273
  H   5.05503786975922      2.06049287927823      0.42988796803374
  H   5.01242663671302      0.07961542189938     -1.15080295581293
  H   7.32507584030555     -2.13230164288548     -0.74726169662954
  H   8.37908686078337     -1.01459091132916      0.16175367088021
  H   7.37904957099129      0.57487919878277      1.87849816855761
  H   5.69682278697961      0.41219658809835      2.38201028456020
  H   6.83058838031689     -0.91848074580613      2.62732938420496
  H   5.07860092279684     -2.32409022243839      1.65303101876625
