36
Coordinates from ORCA-job dimer_007787/dimer_007787
  C   1.24752720067331      1.33522491130128     -1.54372888066957
  C   1.16025827227092      0.04791735548048     -0.67823724048629
  C   1.73881509046376     -1.17404944446785     -1.43529608511386
  C   1.76799681805547     -2.39672353932610     -0.48486551603157
  N   2.48641822145061     -2.04767761022649      0.73238841791621
  C   2.49979563049927     -0.77941540094916      1.31273714118195
  O   3.02307269340341     -0.56329559718714      2.39157085473405
  N   1.91512639168750      0.23462456633720      0.55475448229680
  H   2.28163119203015      1.54881861188264     -1.79368779618178
  H   0.68554985965132      1.20678534340055     -2.46317050207161
  H   0.83709863534582      2.18468016163751     -1.00657473341566
  H   0.10778018632839     -0.15213326643994     -0.45877498707905
  H   1.12902056409165     -1.39196815626388     -2.30544284222484
  H   2.74349157855667     -0.94670800688231     -1.77291739708696
  H   0.74355471838530     -2.71698931979069     -0.27199011681819
  H   2.27512863752235     -3.23256972855427     -0.97006308718593
  H   2.85778005275233     -2.78378979485372      1.31126197276618
  H   1.88490532513372      1.13406126961163      1.00633160473331
  C   6.14169117631375      0.94546530942770      1.88734815511404
  C   6.09727762388395     -0.35424042248126      1.04033550705766
  C   5.50802026153425     -0.08917855973348     -0.36759602641891
  C   5.56973057565484     -1.40121790207826     -1.18818611282625
  N   6.93170100134344     -1.91351756031026     -1.18264036758794
  C   7.86791113606284     -1.70552019072021     -0.16845837825593
  O   8.98491304213975     -2.19178634544420     -0.21050353812949
  N   7.44353465411657     -0.89210407171129      0.87884221373799
  H   6.72700431887958      1.70794650113610      1.38449827260150
  H   5.13209231640058      1.31285372659570      2.04362927194633
  H   6.58383376590527      0.74849161194884      2.85876918247439
  H   5.45075863428097     -1.07007389999141      1.55541683359664
  H   4.48384183880788      0.25565099431731     -0.28336679154383
  H   6.09019442216394      0.68081823539091     -0.86220026653973
  H   4.86458373641384     -2.12183172405290     -0.76413734595793
  H   5.26534797008776     -1.21347868500310     -2.21881889214664
  H   7.23266970070288     -2.52829266329326     -1.92035805225440
  H   8.10610332500550     -0.78063905670661      1.62804180286932
