44
Coordinates from ORCA-job dimer_006159/dimer_006159
  C   2.12745986904933      0.62146752971624     -2.48456219239819
  O   1.94544673469923      0.33717993955864     -1.10463298708752
  C   0.87381580515104     -0.54246789580564     -0.84005442799293
  C   1.05443873073232     -2.05334272016694     -1.24504704353584
  C   0.56977996315881     -2.46763463545717      0.18730071080290
  C   -0.91746617388533     -2.89280521969985      0.19319463532934
  C   1.44574518415699     -3.50887761493738      0.91464057552392
  C   0.76352235568992     -0.98465733380100      0.65665633110250
  H   2.98365703697350      1.29661480742447     -2.57796497419788
  H   2.33460236845972     -0.28567033698722     -3.06659300829338
  H   1.24815535818243      1.11256183010291     -2.92080735673554
  H   -0.06886214170702     -0.13577305807818     -1.22009316887504
  H   0.46530388684194     -2.41308055051414     -2.07884563977014
  H   2.09634007766438     -2.29668870918405     -1.40880401860626
  H   -1.03934891658914     -3.84945170550167     -0.30330478211785
  H   -1.27830173288139     -2.98858716345344      1.21158127789042
  H   -1.53137615043492     -2.16101677610704     -0.31914690650102
  H   2.47915229189853     -3.17908505058502      0.95186926224574
  H   1.09752728039769     -3.64878429987408      1.93237556927336
  H   1.40248180274902     -4.46542866854370      0.40501130960852
  H   1.70492573695202     -0.84476472020379      1.17526271823336
  H   -0.03866312280796     -0.54443454627376      1.23540864237016
  C   4.34489322801307      0.02301553112796      1.92170738998168
  O   4.43481648671376     -1.29859540685679      1.40543677142008
  C   4.69798485536499     -1.33958622753766      0.02066639430036
  C   6.12924822654466     -0.90153234386042     -0.46858206499984
  C   6.18495553291940     -2.19240607431725     -1.35537980215837
  C   5.78957647665555     -1.89860662456057     -2.82192844254174
  C   7.49799253080894     -2.99932037516938     -1.29031809102199
  C   4.98270604225565     -2.77422649789700     -0.53552789704603
  H   4.06795031581130     -0.04787643989298      2.97773440430870
  H   5.30175645575640      0.55491897084922      1.84851568322193
  H   3.58423342708069      0.61579646080693      1.39603325745447
  H   3.90982730151058     -0.82355903507743     -0.53900932038955
  H   6.20773253799695      0.04746655458985     -0.98313895586400
  H   6.84878538877161     -0.93490853785451      0.34052930614017
  H   6.56741923640542     -1.32700962441005     -3.31651565317371
  H   5.64659053146707     -2.82462310140445     -3.36828217961589
  H   4.86794215693130     -1.32982824603362     -2.86521764430097
  H   7.76977687193742     -3.20334128944169     -0.26070153485957
  H   7.38861040970950     -3.94555337417043     -1.80976535665125
  H   8.30737415818034     -2.44673468893573     -1.75576330456036
  H   5.30975568469471     -3.43615692122153      0.25809170824832
  H   4.19214735901900     -3.25308836936038     -1.09850259416102
