40
Coordinates from ORCA-job dimer_009964/dimer_009964
  C   0.86606311923488     -0.61453770347095      1.30197074453650
  C   1.49483928830223     -1.38459687013821      0.10949405422947
  C   1.49741368389859     -0.54275001422790     -1.17959622407676
  O   2.15294880368320      0.69892327628133     -1.09624465131917
  C   1.62518454868284     -1.22380466044991     -2.54277657387236
  C   1.78958478174858     -2.74257734830301     -2.65077973134643
  C   0.27489378829086     -0.60932156475496     -2.11427563765031
  O   -0.77582391031206     -1.44503181807235     -1.71664638686545
  H   1.45223948757043      0.25981183598162      1.56340804652539
  H   -0.14430644334477     -0.30074323753684      1.05782951166487
  H   0.82066710644111     -1.25528929222769      2.17673928944866
  H   2.51590067603781     -1.67282680554182      0.34357608490244
  H   0.92389566881164     -2.28909832826843     -0.06777119957732
  H   1.70058637284635      1.28010582941340     -0.45759663992366
  H   2.17457672136595     -0.65238197685046     -3.27900875220811
  H   1.04968143798821     -3.25893564321118     -2.04873046103335
  H   1.66858954483994     -3.05875459654640     -3.68292525293952
  H   2.77774255321150     -3.04612839956828     -2.31618596456095
  H   -0.00837971065854      0.32309828859532     -2.60282694839423
  H   -1.22086226247462     -1.80999671922232     -2.50524823796235
  C   8.24637821837137      0.46328193115161     -2.13768251694782
  C   7.51655054973087      0.20410262260258     -0.79162964356335
  C   6.54143168569463     -0.98348467807304     -0.89334382537528
  O   7.12775555600759     -2.22965250764355     -1.17793455346577
  C   5.32708675624089     -1.06476780725663      0.03346840254483
  C   5.07395880143769     -0.00357375089814      1.10742409364127
  C   5.13169367201376     -0.72568852248612     -1.46115292510521
  O   4.82645254921291      0.57952430164653     -1.84330584579603
  H   8.86618152863960     -0.38001031483448     -2.42157555228102
  H   7.51986961637364      0.64560601333824     -2.92371266803753
  H   8.88818064481160      1.33425799277588     -2.05645497209472
  H   8.23796600931458      0.00152649079524     -0.00490189237312
  H   6.96156204470155      1.09331760746839     -0.51702103131702
  H   7.53404780419461     -2.19858552724849     -2.06412391532296
  H   5.05889476882434     -2.07225687275447      0.31679333548832
  H   5.13770221251629      0.99438214331395      0.68775300201770
  H   4.08222110663052     -0.12777157637985      1.53076733559133
  H   5.79957612970896     -0.08723354231857      1.91144011009323
  H   4.71683613985967     -1.52423853372093     -2.07465006444684
  H   3.88417494954977      0.76564227864107     -1.63276194282713
