38
Coordinates from ORCA-job dimer_001338/dimer_001338
  C   1.90174807161665      1.56534134807251     -0.03508925542094
  C   1.25635508987209      0.37715688993469      0.72933947906100
  C   0.20608428814754     -0.32367762565830     -0.13773487612761
  C   0.61467276214588     -1.42324226761219     -1.11715675471771
  C   -0.22841157575594     -1.76135334068895      0.12473688207900
  C   0.40183277570339     -2.57655864698950      1.27087781506220
  O   -1.60461441013586     -1.99006890390398     -0.06838607060526
  H   2.64825082090229      2.05963501841507      0.57777259293845
  H   2.38039496638939      1.21442866931344     -0.94303570156838
  H   1.14789278015578      2.29540053398690     -0.30975846557399
  H   2.02593236175694     -0.33056416323919      1.01713351592770
  H   0.78943151295376      0.73747721413558      1.64172559178935
  H   -0.59171417138001      0.32092476682308     -0.47745057046129
  H   0.13050222391022     -1.44926187653849     -2.08081338686829
  H   1.64780483811330     -1.73295183277805     -1.11743010305554
  H   1.47545212830516     -2.42077342915025      1.31265445750042
  H   -0.03553091298711     -2.28471168426335      2.22131008932192
  H   0.21959134193223     -3.63653734767160      1.12107671514810
  H   -1.74051183891491     -2.91849836600978     -0.33610130109631
  C   6.37399183541309      1.68015063358673     -0.09791208293231
  C   6.40190430805372      0.16620384419820      0.24751343558950
  C   5.06512829246600     -0.49213842219444     -0.10761768893070
  C   4.79829756882520     -1.01289620124572     -1.51929858273699
  C   4.92895836188499     -1.99242145328242     -0.33974851253808
  C   6.15668300329153     -2.91912381288520     -0.24860427406449
  O   3.74140752403193     -2.55170467099853      0.17124447801184
  H   7.32099556288970      2.14986240682742      0.14747556979745
  H   6.18264303070548      1.82095895593539     -1.15655922594062
  H   5.58828624830407      2.18175580643612      0.45708564119001
  H   7.21026733397225     -0.31164161602030     -0.29333043401802
  H   6.60001495237240      0.03364050124344      1.30764971457922
  H   4.21416331392487     -0.04365251373366      0.38222995754895
  H   3.81668997176836     -0.85466587406255     -1.93898483180219
  H   5.60248620677438     -0.97351780546672     -2.23707940689578
  H   7.02624705896261     -2.45840288891408     -0.70227249829505
  H   6.38118955936500     -3.14059478930692      0.79123824281666
  H   5.96287082724872     -3.85452978526585     -0.76616457883458
  H   3.52802776801462     -3.36165135602848     -0.32959123087764
