36
Coordinates from ORCA-job dimer_009731/dimer_009731
  N   1.60168895528389      1.37643979262516     -0.20316391410297
  C   0.82214482743433      0.21204319372946      0.19045829313430
  C   1.26671296781643     -0.37993130990740      1.56266805879735
  C   0.05029608072782     -1.22376802571160      2.03593338436005
  C   -1.20180350704249     -0.61057753998012      1.32354380025889
  C   -0.66762009953231      0.57174056241288      0.46926279778976
  C   0.86936292402786     -0.88895553071169     -0.84665327734459
  N   0.93073858819363     -1.69901015826652     -1.63745746619517
  H   2.57197220687631      1.16618226350225     -0.43088473262064
  H   1.16431177647088      1.89623808033954     -0.95250379370303
  H   2.17717120152492     -0.96177007435024      1.49393403418951
  H   1.44472961407108      0.45654647899801      2.23048433740974
  H   0.17588681571354     -2.26179744914826      1.74792145366596
  H   -0.04720091220236     -1.19638486315199      3.11513118434000
  H   -1.67378972637655     -1.35197078869988      0.68796723503737
  H   -1.94576672920381     -0.27310904651546      2.03598252968624
  H   -0.67463534070700      1.49673346604635      1.03703492755271
  H   -1.23404920320733      0.72471728582749     -0.44240386365493
  N   4.52515937013985      0.81055808861879     -1.14722810986952
  C   5.22000630672798     -0.09457855093473     -0.23405203074550
  C   5.04562084881107      0.32733131077797      1.25598097221658
  C   5.33770699474548     -0.96743630757406      2.06351336881634
  C   5.03840835822101     -2.16115905809776      1.09534145658507
  C   4.60844737036332     -1.52733149162197     -0.25724556870827
  C   6.69508132173498     -0.19237815563660     -0.53974682277814
  N   7.80105144256269     -0.25142040454519     -0.78215308373794
  H   4.90203879228737      1.75181861913015     -1.12715128989028
  H   4.50185462167306      0.46273173413628     -2.09958395441589
  H   5.69651791463237      1.15016309640977      1.52967894372899
  H   4.01818004671295      0.64834690462533      1.39128008711291
  H   6.37594294534803     -0.98971570235445      2.37670760364559
  H   4.72802940955559     -1.01250327351124      2.95883624868139
  H   5.92690197943346     -2.76884560251955      0.96210826165412
  H   4.25984237749673     -2.80821104433730      1.48345035817533
  H   3.53022275596151     -1.42887575214501     -0.32052942993710
  H   4.94153705272353     -2.10149129845837     -1.11491867513424
