48
Coordinates from ORCA-job dimer_009959/dimer_009959
  C   3.27268873697600      0.61425597924200      0.74517410513882
  C   2.24517485919227      0.04014547001867     -0.26736690490601
  C   2.90740217892183     -0.85223740494057     -1.32450861722774
  C   3.84267232348300     -0.09049360242116     -2.27398699870079
  C   3.29536269448269     -2.28760327585430     -0.97956550259997
  C   3.07212324750442     -2.88605291747609      0.41209837158068
  C   2.13305541087708     -2.02006783281915     -1.93286089339216
  C   0.68330166452983     -2.34064871370957     -1.55812834899152
  H   3.81138174506357     -0.18866283545576      1.23542493706707
  H   3.99374079571732      1.25305098483754      0.24954949666789
  H   2.76915204059334      1.20194187378998      1.50566472283129
  H   1.48874332005355     -0.51178101735437      0.27338816252403
  H   1.73691300163991      0.85700124891931     -0.77043936378215
  H   4.65282247277674      0.37903495129491     -1.72852796676525
  H   4.27539697505223     -0.76338689290931     -3.00518188901733
  H   3.29597357862839      0.68401508204006     -2.80269780359051
  H   4.20148520418772     -2.63995754753276     -1.44696346212882
  H   2.20123233423900     -2.46833298570613      0.89944479657603
  H   2.93451151355509     -3.96103090593013      0.34058212063009
  H   3.93334961124947     -2.69890076111171      1.04552096598951
  H   2.34312977926109     -2.20587723968552     -2.97442800855836
  H   0.50136239691417     -2.23228082278867     -0.49717146629627
  H   0.00084688492367     -1.68178260669261     -2.08709536118380
  H   0.44615218370772     -3.36420844735996     -1.83336312784682
  C   10.42722731643154     -0.24452890877779     -0.15481328634967
  C   9.23427256972992     -0.97760294243717      0.51553435720731
  C   7.89159568889202     -0.60673522693146     -0.12576809487756
  C   7.50577818298846      0.86714180541585      0.06468790382901
  C   7.46173163835219     -1.26204642015249     -1.43570316607983
  C   8.33641687293242     -2.27820181569672     -2.17546190418732
  C   6.74475893841505     -1.61505583614218     -0.13505677704819
  C   6.85648156992165     -3.00510791505217      0.49668936133946
  H   10.44575304362426     -0.44799328137489     -1.21954152520539
  H   10.35303206550950      0.82746974341165     -0.01529566935861
  H   11.36697871591874     -0.57600112499527      0.27433609432843
  H   9.39909328131055     -2.04459401773399      0.45772752811398
  H   9.19844864399887     -0.72292339908293      1.57030820875859
  H   8.21567110396672      1.52041412754802     -0.43085589723070
  H   6.52359577440787      1.06226171523260     -0.34886941150983
  H   7.48657200687084      1.12189944150930      1.11957428774382
  H   6.90747605195169     -0.62339147856853     -2.10484189333487
  H   8.95600850460003     -2.85155039379005     -1.49868634281812
  H   7.71500761553160     -2.97301770550279     -2.73305680537573
  H   8.98931035141951     -1.77162071013143     -2.87964876376437
  H   5.76251670417889     -1.18420257075213     -0.02404579179466
  H   7.82603693505138     -3.45428820385964      0.32783358110059
  H   6.69360378361654     -2.94844942557330      1.56890940033246
  H   6.10536068684834     -3.66647523695694      0.07523264216270
