44
Coordinates from ORCA-job dimer_009774/dimer_009774
  C   1.03867500442122      1.51597463691954      0.26316814651170
  O   1.65582093027923      0.25502746951053      0.45149897113987
  C   1.63866539485986     -0.28782482593677      1.76794370935856
  C   2.25204396516875      0.68207617237628      2.81714511794020
  C   0.20622162161790     -0.77494560747057      2.14509417730281
  C   -0.01305482882576     -2.01991288353780      1.24257745670980
  C   1.41701008916781     -2.57986476681066      0.93563596599540
  C   2.40882257399257     -1.63379262751923      1.66653321998688
  H   1.59421248462195      2.32910615692560      0.74496957601647
  H   1.02079260834382      1.70997886643592     -0.81380277839357
  H   0.00624567520247      1.54615859345556      0.62883970064424
  H   1.62342182022062      1.55188437121429      2.96813815125576
  H   2.35486476621763      0.17077090581547      3.76744635340990
  H   3.23393138416627      1.01036874244874      2.49367233711998
  H   0.19984108426056     -1.05559199514146      3.19177303962595
  H   -0.55078554144516     -0.01519841660968      2.00372280540856
  H   -0.63959022855342     -2.75719322940600      1.73056755494907
  H   -0.50668294931254     -1.73141651824552      0.32196887520187
  H   1.52777762076221     -3.60454334305954      1.27028033393659
  H   1.60487542012240     -2.56208892906347     -0.13164098204460
  H   3.35268368623795     -1.51702326712497      1.14219404866353
  H   2.61625827016035     -1.99740005161196      2.66575780092813
  C   4.98814993815575      0.58062586929560     -0.07543002637449
  O   5.45625338617952     -0.65862031365940      0.43069135221759
  C   6.75208977002091     -0.67611394759974      1.01519049265829
  C   7.83901748099240     -0.08149512369366      0.07545330649144
  C   6.72855445094719     -0.00953222593676      2.42487284756876
  C   5.93337291260849     -1.01607170709779      3.29926176546192
  C   6.15013830970961     -2.41868195485838      2.63932192421750
  C   7.01612398481058     -2.16569768394125      1.37352034173911
  H   5.48116715110045      0.85406994840913     -1.01532498391030
  H   3.91328747326222      0.46797691922230     -0.26377239739726
  H   5.12348898463165      1.40632157278690      0.63101127151729
  H   7.69999010427523      0.98452208504624     -0.06228264659266
  H   8.82101879040561     -0.24248314009071      0.50533424911195
  H   7.80157548292441     -0.56657183927274     -0.89437874446585
  H   7.74652618178850      0.08897962694207      2.78322782025963
  H   6.28473458447210      0.97723325985755      2.41479144600709
  H   6.26716085376119     -0.99818017519473      4.33000783587320
  H   4.88028412549135     -0.76224994987765      3.29197593250101
  H   6.63735503838234     -3.10935775129749      3.31747349484330
  H   5.19680102010560     -2.85206184826588      2.36047406113067
  H   6.75342865880460     -2.81744230566704      0.54849709540964
  H   8.06826142148299     -2.30069448367079      1.59478801406477
