40
Coordinates from ORCA-job dimer_009919/dimer_009919
  C   4.42489448817322     -0.25993390291653      1.95031906936307
  O   3.36424604843527     -0.73422458108162      1.13296991244557
  C   3.78774340981073     -1.18362472737019     -0.14892034636917
  C   2.53710122329733     -1.66910219288821     -0.93444934618773
  C   2.90428429289142     -2.18417648148156     -2.34557246256383
  O   3.29106122842201     -1.21308206866717     -3.27263177421292
  C   3.51678121157731     -3.59183980207907     -2.45382344813043
  C   2.07909908565145     -3.33890714351346     -2.91118317814522
  H   5.17048893665259     -1.04028652255699      2.15137011582483
  H   4.94101235818164      0.59682307961035      1.49824432750874
  H   3.99473072603235      0.06026967548551      2.90453580039060
  H   4.28686912076384     -0.37982381901504     -0.70174025152865
  H   4.50338415993655     -2.00855192752228     -0.05560579810823
  H   2.05569221861057     -2.46142420127381     -0.37058472868493
  H   1.83014841079392     -0.84871264705185     -1.02598993024315
  H   4.18733865028348     -0.86763564304127     -3.06792682524403
  H   4.25595919769480     -3.76009131567324     -3.22178388842024
  H   3.67702319861005     -4.15527917254107     -1.54800539684166
  H   1.26822481470439     -3.73271151434575     -2.31776851767235
  H   1.89190968063202     -3.32846333840543     -3.97508587029952
  C   5.66795747258200      1.42428177749512     -2.71847436151655
  O   5.76266442468121      0.00488859816572     -2.68488261781895
  C   6.93305775733482     -0.49742848386829     -2.05068447922438
  C   6.93933551034940     -2.04579670779693     -2.20224214874475
  C   8.07544187762134     -2.69846072593615     -1.38806214649966
  O   9.37889088425041     -2.42182108328177     -1.83024844132418
  C   7.84881318279009     -2.92259273999469      0.11524950110679
  C   7.85062079294713     -4.10922436182063     -0.85045220056025
  H   5.65389033924798      1.85537490085070     -1.70883312468244
  H   6.50150158078421      1.87160241497069     -3.27517884585103
  H   4.73031443180748      1.68399840134540     -3.22257653987935
  H   7.83238917108951     -0.06934119648309     -2.50991286201941
  H   6.94329852505295     -0.22766811614751     -0.98687776121086
  H   5.98726036466600     -2.43633072700928     -1.85917790374410
  H   7.04714492872338     -2.30683180348169     -3.25215523765214
  H   9.62599548712676     -1.51008813136990     -1.58581572670818
  H   8.69855877961784     -2.81782345779795      0.77332984476055
  H   6.91057092170074     -2.60628939923280      0.54440344109471
  H   6.91464347749111     -4.59893342513850     -1.07597928241435
  H   8.70807929298012     -4.76728758613961     -0.82909106999206
