38
Coordinates from ORCA-job dimer_002096/dimer_002096
  C   1.79987602059092      1.41579056782730     -0.57584917805577
  C   1.56568456376231     -0.09018167300342     -0.27370051887021
  C   2.19172375353701     -0.98060973287599     -1.37574701461519
  C   2.18772446510249     -2.46462211361246     -0.93925492515084
  C   3.05791719347869     -2.65333672407202      0.32762649761920
  C   2.77552679914138     -1.56683726591031      1.36117404565811
  C   2.12353159170824     -0.45876975985495      1.10050333149094
  H   2.86020686157029      1.64209592706239     -0.58185644357821
  H   1.38978302819510      1.67576996425373     -1.54580053186014
  H   1.32360701417814      2.03566233575350      0.17603545700003
  H   0.49231631529106     -0.26545514416942     -0.26102418933609
  H   1.63933950596841     -0.85654570755619     -2.30035091858326
  H   3.20997528910313     -0.66093628465633     -1.56214893978730
  H   1.16940523299568     -2.77148662082421     -0.72729280589763
  H   2.55769640054834     -3.09471837570299     -1.74078105733946
  H   2.87075065504486     -3.62894047174212      0.76688254376625
  H   4.11332200190515     -2.62761640959541      0.06604953856601
  H   3.15439875081209     -1.75179087811391      2.35665367573217
  H   1.95184321448676      0.26582218451174      1.88323123748587
  C   5.83422737697780      1.75573411401533      0.84419685351501
  C   5.67117537657892      0.33338127535112      0.24375586909572
  C   6.47526503669148      0.18563996745570     -1.07056477341183
  C   6.49667679307096     -1.29310835307907     -1.52407736694829
  C   7.22203613640237     -2.16285270598677     -0.46759651166122
  C   6.76938263277628     -1.81243074033404      0.94800656906541
  C   6.09173046615016     -0.73162793483054      1.25366179706076
  H   6.86958294521395      1.94136468747484      1.10779268396005
  H   5.52432010526388      2.50788809034013      0.12674086067995
  H   5.22848615889853      1.86290885106609      1.73757444345779
  H   4.61799895430097      0.18331557582137      0.02520937238104
  H   6.03652652756174      0.81179569437984     -1.83921655456571
  H   7.49099238884758      0.52876850411002     -0.91097541257680
  H   5.47866812073810     -1.64496885069997     -1.64759447817405
  H   6.99166756252862     -1.38769328992146     -2.48446578280463
  H   7.03540347974382     -3.21589707864126     -0.65848050326327
  H   8.29732751662493     -2.01905722752907     -0.54752788427173
  H   7.03990167415277     -2.51916461390807      1.71981740213111
  H   5.79004609005640     -0.55128378280304      2.27539961208621
