40
Coordinates from ORCA-job dimer_010862/dimer_010862
  C   1.63872568311632      1.53396198043000      1.41372189529504
  C   1.93027119501483      0.09808426833813      0.90083644271184
  C   3.14578634450328      0.07706989643060     -0.08086954883337
  C   3.54191307416464     -1.38077182006971     -0.42820593136054
  C   3.71756309393950     -2.20712812596692      0.88560135928373
  O   4.81052618370298     -1.72764942899909      1.66284869809852
  C   2.39318027697895     -2.08859282749860      1.71735664772128
  O   2.18477000669986     -0.72030629429290      2.04264429440748
  H   2.50002255700275      1.92019746560057      1.94900483633171
  H   1.42158208621284      2.19307481676055      0.57901261740019
  H   0.78699839733982      1.52481975870337      2.08693942062293
  H   1.04939021235200     -0.28020921176947      0.36945037674812
  H   2.88789477478198      0.62519400273594     -0.98085826618858
  H   3.98420907336434      0.58750297155739      0.37998858671750
  H   2.76935314292697     -1.84260859765091     -1.03467832683670
  H   4.46413471067224     -1.39817469038582     -0.99839806748899
  H   3.91736121691033     -3.25408922097946      0.64107256730294
  H   4.49008767049184     -0.98768324463565      2.21468557682357
  H   1.55097879119115     -2.50845036848124      1.15490119079117
  H   2.48854175201751     -2.64010272166055      2.65761679284288
  C   7.12849629065742      1.51246852123848     -0.46888389618651
  C   7.20941730036559      0.00457359716012     -0.11128475967323
  C   7.40561041798231     -0.88357035014221     -1.38007626451448
  C   7.59785950047875     -2.36441027606899     -0.96391461656405
  C   8.72873063830361     -2.47130898997245      0.10886965457395
  O   10.00236186534819     -2.13797381444902     -0.43384448365806
  C   8.37920270187801     -1.50254933647554      1.29297758198286
  O   8.29974868499393     -0.17244861836262      0.79250424071209
  H   8.04254905809173      1.83101017683965     -0.95893809941521
  H   6.29304252715063      1.69409518657128     -1.13725109598127
  H   6.99483130628026      2.10411494291863      0.43125150205029
  H   6.28173864033767     -0.31051030514055      0.37897979192673
  H   6.54533783339223     -0.77940147006366     -2.03172554849376
  H   8.27233047330323     -0.53694581092001     -1.93180386548029
  H   6.67611147851501     -2.75009693673861     -0.53949201074523
  H   7.85456270123914     -2.97279778985751     -1.82489863480190
  H   8.78924897102562     -3.49936033414277      0.47581298332715
  H   10.08160967681982     -1.16481643156373     -0.44812886492454
  H   7.43901164022629     -1.81300910331045      1.76748015669730
  H   9.17564991022576     -1.52629340568619      2.04212888677736
