38
Coordinates from ORCA-job dimer_002176/dimer_002176
  C   2.34910366051700      0.01167613608384     -0.93261838275717
  C   1.56664759718158     -0.64901052078617      0.22742263488602
  C   2.50068663088784     -1.54355540897459      1.09867236445995
  O   3.13099735374442     -0.66046514027790      2.02562967608572
  C   2.33980848838292      0.51483693809799      2.21017338407662
  C   1.07810909248449      0.36892474699933      1.29638764605612
  C   0.55533294674935      1.71720159726295      0.75375464276363
  H   3.16898363388106      0.60881149677299     -0.55054615146926
  H   2.76049761614186     -0.74842990858928     -1.58806865181335
  H   1.70274576849831      0.65154067998182     -1.52243241789443
  H   0.73737729570526     -1.22151729456240     -0.17170985471308
  H   1.91675690963445     -2.30588090434593      1.62827699079660
  H   3.26787738632174     -2.05124883092180      0.50958332871447
  H   2.06338752243747      0.62371902983322      3.26384920490607
  H   2.92359476997630      1.39625731399369      1.92627773378843
  H   0.28948658071676     -0.10475874957340      1.87114745077468
  H   1.33655098117184      2.25532187284156      0.23005243002564
  H   -0.27146629742895      1.55904163977534      0.06897555823676
  H   0.20451435537855      2.34025776777515      1.57041449485101
  C   7.08127806632433      0.85691750048008      1.78192722424231
  C   6.07601649706228      0.58597799532784      0.63777167754883
  C   6.43805337643434      1.40318274323342     -0.64102888293311
  O   7.38659353024709      0.61597372852926     -1.36271870076655
  C   7.33718008713715     -0.74721686153007     -0.93733260705622
  C   6.15725423914337     -0.86084559727324      0.08006835818325
  C   6.34049468758813     -1.97245324631074      1.13508177665365
  H   8.09204672416453      0.61563651447715      1.47264763324525
  H   7.05472352333062      1.90407453002910      2.06281051648512
  H   6.83513169314114      0.26596626932229      2.65679783608991
  H   5.07231419252265      0.80211420748418      0.98301398435278
  H   5.54512729565228      1.57673309969201     -1.25307710982644
  H   6.88210590794359      2.37377311849169     -0.40557476282451
  H   7.19486552118878     -1.40292835350248     -1.80174875570595
  H   8.28508326887270     -1.02094801552024     -0.46260595681416
  H   5.24552698824099     -1.05155021648996     -0.47392448944196
  H   7.28742131313230     -1.86696888521163      1.65062396148065
  H   5.53985892662336     -1.92559505686928      1.86789170019059
  H   6.31938421386789     -2.94931278074577      0.66330814312206
