42
Coordinates from ORCA-job dimer_001889/dimer_001889
  C   2.42242475099676      1.31740828558509      1.39175782083851
  C   2.03945444558296     -0.03823584272108      0.75214868774814
  C   2.24602725388090     -0.06675739335785     -0.79061317521774
  C   2.58286635211898     -1.54654697273679     -1.15729120492659
  C   2.68236014362748     -2.32524953231294      0.19218334274735
  C   3.79196539548436     -3.40439960261026      0.19087236919127
  C   2.89213648018521     -1.22513416566997      1.26360434481740
  H   3.46432331689346      1.54385494059890      1.19412534148756
  H   1.81647776232606      2.12035386167293      0.98541820069943
  H   2.27725536711156      1.29125724486062      2.46658624115141
  H   0.99785159832299     -0.24873876682011      0.96746537175518
  H   1.36852460991649      0.29358328973538     -1.31358575573532
  H   3.07008328095237      0.58181360043632     -1.06123458430302
  H   1.82791967187066     -1.98294567915643     -1.80000167181053
  H   3.52385142149922     -1.59824988771491     -1.69078825929060
  H   1.72964445650594     -2.80563590661604      0.38419088904845
  H   4.75705855530398     -2.95311618876600     -0.01002532118094
  H   3.84336911145752     -3.90501222009391      1.15198587225010
  H   3.60095944360753     -4.15129846960094     -0.57241591099260
  H   3.93464362257765     -0.93825843640602      1.30732181507909
  H   2.59682614656069     -1.55203158217792      2.25302863527442
  C   6.04824305207077      1.30874094904989     -1.37840054262105
  C   6.15340685613377      0.01753431436463     -0.53431662427104
  C   7.12291326392467     -1.04206830072412     -1.13432335820834
  C   7.69309175886039     -1.84192052232813      0.08083524975421
  C   7.09528928092068     -1.17918468630012      1.36019509539425
  C   8.06356122338268     -1.19252427381630      2.56658528997304
  C   6.69876059251920      0.24453426877297      0.89617694718993
  H   7.02021692994826      1.77986472578402     -1.47333316193880
  H   5.67813279510442      1.08788328132505     -2.37411626767004
  H   5.37095598758827      2.01727630499036     -0.91313140966551
  H   5.16927870306899     -0.42523796969273     -0.45359058489606
  H   6.61580115895229     -1.68404194240936     -1.84448679683070
  H   7.92628394057873     -0.54610315759340     -1.66524640259990
  H   7.43668015738633     -2.89328484678597      0.03008283981749
  H   8.77399428603863     -1.77656897042769      0.09921990160948
  H   6.19089054657464     -1.71010156458914      1.63471342685955
  H   8.97571038369846     -0.65853718715195      2.32476659217318
  H   7.60891421674210     -0.71663762488297      3.42913203401723
  H   8.32621074863233     -2.20968111016434      2.83770658659600
  H   7.57440393663031      0.88154135672890      0.86210953741748
  H   5.97183289646073      0.70814584072244      1.55178367226859
