36
Coordinates from ORCA-job dimer_007815/dimer_007815
  C   1.36933699724827      1.23275967358138      1.48178227578093
  C   1.38966930459940     -0.04993317584984      0.65458989049688
  C   1.45113258726859     -0.06728646584695     -0.65553431482974
  C   1.48640156680856     -1.37124300009564     -1.46949450316985
  O   2.39979885303926     -1.29993052471354     -2.56035587716993
  C   1.82613956426574     -2.56624744009001     -0.50360142562303
  O   1.03074930235938     -2.49017346864268      0.66920335159164
  C   1.33171552648577     -1.35690617317259      1.46715687732313
  H   2.16053140237337      1.22054437870637      2.22773240054454
  H   1.49841613319809      2.10415813885608      0.84923340626203
  H   0.42281730889071      1.32768011581532      2.00979894728227
  H   1.47659697117695      0.84720010899384     -1.22997774967373
  H   0.49878578057019     -1.54569177437571     -1.91134561234016
  H   3.29734089715425     -1.13397690413980     -2.21480923924413
  H   1.60896688437498     -3.51965123571533     -0.99289124259876
  H   2.89491286895181     -2.53683602608905     -0.25814525764967
  H   2.28862551161436     -1.48901871581080      1.99600338358524
  H   0.54462294164914     -1.27693181618908      2.22445709484723
  C   5.13022058181688      1.18594043599760     -1.61298344343709
  C   5.31176523897464     -0.16834002807100     -0.93354182681239
  C   5.69665006543678     -1.25406464925793     -1.56350427138944
  C   5.90345940114213     -2.60564202110989     -0.85997571279617
  O   7.10768795018807     -3.24317339681861     -1.27828129330538
  C   5.87992070776293     -2.39479497525655      0.70131833736288
  O   4.83341409560899     -1.51099790454162      1.07446090825244
  C   5.00769031352586     -0.19525974979704      0.57519231457265
  H   5.74218482258355      1.94093538096581     -1.12428681957212
  H   5.41074035162005      1.13533600407770     -2.65995972161033
  H   4.09259332116610      1.50750265492726     -1.54687857560509
  H   5.90203442526439     -1.24424654326344     -2.62528242706646
  H   5.09262273209948     -3.28852875378882     -1.13922752148652
  H   7.85775619376740     -2.63199332392537     -1.14975607469743
  H   5.70380971491952     -3.34957680093612      1.20560387535720
  H   6.85687756816903     -2.01623897649675      1.02682084824912
  H   5.81073331262277      0.33122076717752      1.11219420443998
  H   4.07867480130162      0.35052818489551      0.76645879412934
