40
Coordinates from ORCA-job dimer_007814/dimer_007814
  C   1.48608971491854      1.43836688573457      1.34936689721064
  C   1.43193138780550      0.10001667283332      0.61289508233120
  C   1.44168471621295      0.02391457478482     -0.69700738882275
  C   1.41483633960243     -1.28622061443916     -1.50162127552660
  O   2.27533171743681     -1.21064783669430     -2.63664431022157
  C   1.76307568181092     -2.49828716679742     -0.58783557041038
  C   0.96052618236966     -2.40571703513283      0.73045891888038
  C   1.36012372906323     -1.13226353613914      1.51488845954743
  H   2.31811671541146      1.45595811740680      2.04893684512997
  H   1.59932685827605      2.26292266542209      0.65450473369085
  H   0.57479212723248      1.59278138753100      1.92242392062605
  H   1.47290483243396      0.92019657392341     -1.29865679638727
  H   0.40638194813588     -1.42897724423738     -1.90537199533081
  H   3.19575613927021     -1.12295676129041     -2.32434096302640
  H   1.54524874451348     -3.42268005477596     -1.11173745568508
  H   2.82490853927983     -2.48278703420509     -0.37199805675618
  H   -0.09952564699547     -2.37197788423476      0.50219979110610
  H   1.13321655954473     -3.28612042467810      1.34052455075079
  H   2.32436276433027     -1.27769930281956      1.99488063143299
  H   0.64482425402910     -0.94674554548853      2.31059701316920
  C   4.88453754656244      1.03420229813966     -1.38308731773202
  C   5.23918443943971     -0.31826984435969     -0.76510363468870
  C   5.57263445933626     -1.35845135474991     -1.49413820697297
  C   5.99380059822106     -2.72399927763038     -0.92489487941815
  O   7.03041309324706     -3.31089527458329     -1.71116536142524
  C   6.40362846694654     -2.58459645100112      0.57215190458790
  C   5.31831211231288     -1.78718585480103      1.33163557567044
  C   5.20507746803162     -0.35158299879096      0.76295076280175
  H   5.59446293238602      1.79041152795913     -1.05597281364792
  H   4.90233792479665      0.99000270659378     -2.46660035351307
  H   3.89589966323689      1.35146586760045     -1.06195852971596
  H   5.59030649718326     -1.29410350337695     -2.57259571793015
  H   5.14866666036178     -3.41810872915797     -0.99457690982249
  H   7.80326504090225     -2.71582753646334     -1.71077981346221
  H   6.53563653361800     -3.56984471931613      1.00649754588714
  H   7.35291120928242     -2.06355797353100      0.63657133838795
  H   4.36782525766744     -2.29883915126116      1.23265573621081
  H   5.55251691909654     -1.74572438449640      2.39020231587198
  H   6.02242772459617      0.25968474003884      1.13887279675821
  H   4.28648514809206      0.11645347648438      1.10348053044418
