38
Coordinates from ORCA-job dimer_009520/dimer_009520
  C   1.23757201924999      1.80793700777999     -0.61698494772279
  C   0.41950039450087      0.50407389937494     -0.42960599031979
  C   1.17095691435532     -0.74856249064724     -0.94562152360291
  C   2.46633394595550     -1.03611180954327     -0.15718304369663
  C   0.25048267459959     -2.00406177600137     -1.19099662432919
  O   0.48059918767637     -1.89537944695719     -2.62342006995570
  C   1.32567674736757     -0.78980700350263     -2.48760302184296
  N   1.93920874024938     -0.12208435060996     -3.33626676718140
  H   2.14732332543963      1.79167972487476     -0.02793152725263
  H   1.51079403101009      1.93769241423026     -1.65962804386936
  H   0.64837155952703      2.66475453256084     -0.30666584085350
  H   0.18514238025402      0.35825948453377      0.62071018742073
  H   -0.52243190927831      0.59269574308988     -0.96163439606366
  H   2.23080951852035     -1.21186191937748      0.88772467002552
  H   2.97254071402874     -1.90892991195415     -0.55726155442939
  H   3.14323228081271     -0.19195889429624     -0.22439093479915
  H   0.62416012071363     -2.94805268664440     -0.78274159448487
  H   -0.80419181357737     -1.87743129980730     -0.92890755972751
  H   1.81858532443165     -0.43445303139957     -4.30633098247805
  C   6.42416743186919      1.41016185169900      0.48718736998932
  C   6.54520782611640     -0.07798853525069      0.06872958664418
  C   6.54692101734644     -0.25294530834082     -1.46972133915537
  C   7.74360974519178      0.44473683427138     -2.14965080272151
  C   6.25285676464234     -1.72000152747120     -1.95684450558906
  O   4.97862686146194     -1.29034427257124     -2.50627889604186
  C   5.17475566469653      0.05221972946416     -2.12078378546685
  N   4.47182653720330      1.05886201037936     -2.25758944165365
  H   7.31712415188105      1.96339657559017      0.22111956120177
  H   5.57553522827402      1.87077173043103     -0.01085820700893
  H   6.28468022899782      1.48971850918882      1.56016686814400
  H   7.45558116637483     -0.50835020234875      0.47474898068862
  H   5.71152221930598     -0.63591068517139      0.48232496133128
  H   8.67857633162178      0.09680743958243     -1.72215821651710
  H   7.75043534118436      0.24067267338078     -3.21513293720535
  H   7.67576000826338      1.51869225193061     -2.01128995679660
  H   6.93014306123232     -2.10462006576258     -2.72481666671708
  H   6.13660374507101     -2.46481510659573     -1.16450468583310
  H   3.56719395542797      0.90078424989073     -2.73565501512900
