38
Coordinates from ORCA-job dimer_007531/dimer_007531
  C   1.75159007447134      1.80042697636432      0.00876662022912
  C   2.55637839261348      0.55708672317752      0.40071603442387
  C   3.28463280695273      0.47924280996497      1.73640405826625
  C   2.06138266223167     -0.40190375828597      1.48292780068853
  C   0.74862939948891     -0.14224250084218      2.23803617770799
  N   2.37173362864075     -1.80566817404914      1.18724684777774
  C   3.68744871956681     -2.67414545344370      2.87044478222035
  O   2.46861726386378     -2.54133102311320      2.38531444990300
  H   1.34567877041391      2.30056464304257      0.88053862590621
  H   2.39369431695524      2.50382509518350     -0.51469165509280
  H   0.92927607497730      1.53538280286047     -0.65002837059048
  H   3.05778081182962      0.07309474016207     -0.42499751391981
  H   4.25426706642374      0.00399624278914      1.76406282282859
  H   3.16675673309643      1.30068837419875      2.42649757135398
  H   0.65745783842090      0.90424276710316      2.50439516380487
  H   -0.10699711561789     -0.41612723359860      1.62722369959797
  H   0.72131656520605     -0.72902903592636      3.15219484471828
  H   1.59829999351946     -2.25098595213515      0.67535886672580
  H   3.51545898899446     -3.27961436452132      3.79996657128402
  C   5.86682407603916      0.81505578022098     -0.95713492753972
  C   6.04766294289018     -0.62765927053841     -0.47012408656674
  C   7.36536907012891     -1.36060404141524     -0.70091767908502
  C   6.95701518789132     -0.95172876145477      0.71653271212107
  C   7.73558853498883      0.16970338245839      1.42434907985445
  N   6.51210691006794     -2.00783578075894      1.58198484953838
  C   7.41226128984829     -2.93187914909767      2.07831739416079
  O   8.59580876300765     -2.96067653716152      1.81366292660812
  H   6.82262498994152      1.31636936727271     -1.05328260213757
  H   5.38657841857367      0.82271146717413     -1.93100687432803
  H   5.25027502802281      1.38393735458761     -0.26798629960923
  H   5.15650756595396     -1.23484956685399     -0.53281792537181
  H   7.33396833248973     -2.41160803383017     -0.94420579078856
  H   8.17349614475902     -0.81989830863188     -1.16775695988297
  H   8.11475564158022      0.89422245339550      0.71457724523939
  H   7.09822283115670      0.68256149230991      2.13794123263798
  H   8.57955676920238     -0.26002657423735      1.95697011784249
  H   5.55120154566591     -2.04570897835419      1.91091869891081
  H   6.92108996574132     -3.66118397401582      2.75446149056240
