48
Coordinates from ORCA-job dimer_006540/dimer_006540
  C   0.09963161722288      1.45823596837582     -0.05241044253428
  C   0.61574457748692      0.00276870340262      0.10885555543553
  C   1.69623131296502      0.00134172583085      1.22576247209614
  C   -0.57518264854446     -0.89650868690745      0.54439776397113
  C   1.20646464689268     -0.55628496490301     -1.20782579477648
  C   1.99608532202571     -1.86513174093002     -1.06118567467982
  C   0.40494148876419     -0.40372099843503     -2.49413478845313
  C   1.69839991289214      0.38179224426145     -2.30385098728256
  H   0.91819329996917      2.14131279722247     -0.24028102101032
  H   -0.61677338869585      1.54225682202244     -0.85919026349408
  H   -0.39022944583205      1.76801164187022      0.86302505621845
  H   1.30009354992802      0.46528060364074      2.12135403329673
  H   2.00103237250765     -1.00640377897416      1.47630135501120
  H   2.56994789385649      0.55800357892360      0.90883647982565
  H   -1.34746652995546     -0.89310962047158     -0.21571539186838
  H   -0.25395791191502     -1.91837457933117      0.70129747504562
  H   -1.00197733564020     -0.53014562186583      1.47077332943050
  H   1.41429504677643     -2.62069544011871     -0.54588789975767
  H   2.26295723096678     -2.25188469657949     -2.03779312546880
  H   2.91109428899705     -1.69779638208467     -0.50592216840256
  H   0.40433823399903     -1.22594549419865     -3.19146314617764
  H   -0.52605185833179      0.13695827549537     -2.46524058362326
  H   1.63136479825374      1.44655554596756     -2.16097462908709
  H   2.56253742795201      0.07672688675161     -2.87203965111876
  C   7.26917551507282      1.19866779903779      0.53401324675261
  C   6.21776971298562      0.25268772081753     -0.10733394856224
  C   5.69166595376341     -0.70890156078482      0.99502657759906
  C   5.04894433902552      1.12927001690127     -0.63632944655211
  C   6.81161090538889     -0.58437379485970     -1.26509106817852
  C   5.78468719693054     -1.36420323329155     -2.10005066117664
  C   8.03345498924170     -0.09045567808070     -2.03027244705459
  C   8.15811421123746     -1.26928452848501     -1.06986895393485
  H   8.14338759051736      0.65722366165959      0.87093739105758
  H   7.58100424889015      1.96507071469472     -0.16379449424069
  H   6.82927706284697      1.69020537023614      1.39354679380372
  H   5.25660166561165     -0.14235946651338      1.81013581244724
  H   4.93263184828086     -1.37450547412578      0.60543580576019
  H   6.50391837857164     -1.30947143317912      1.38752459640169
  H   5.37991351119744      1.73209953534222     -1.47405964697730
  H   4.21391899069203      0.52041114971224     -0.95740456112528
  H   4.70061850376904      1.79273383829886      0.14622068941601
  H   5.12817098647886     -0.68998598015995     -2.63788500951082
  H   6.29354838727913     -1.98709189142253     -2.82632542650969
  H   5.17652774184487     -2.00684613588489     -1.47441789889605
  H   8.07637013110368     -0.29173855244759     -3.08881620409882
  H   8.49211671846827      0.84220190206212     -1.75047726050221
  H   8.69162713067745     -1.11804587328112     -0.14675171740581
  H   8.28858000358324     -2.25528618821128     -1.48590585210855
