42
Coordinates from ORCA-job dimer_006481/dimer_006481
  C   1.23014827378217      2.07513494874695      0.40090308235167
  O   1.14263097592800      0.72497123961660      0.83036975283673
  C   0.06036107137277     -0.01855338671862      0.31291422965236
  C   -1.32218302191955      0.58568302842973      0.67981229501966
  C   0.23654902466320     -0.45160310930425     -1.20016223616300
  N   0.65117835929606     -1.78642575285345     -0.73258219128570
  C   0.26325594695348     -3.00019024819458     -1.43959994861594
  C   0.25535729480353     -1.54069865158678      0.66654995213040
  H   2.18637102747404      2.46956654441969      0.75793534216118
  H   1.20565865948334      2.16743952995448     -0.69176380363429
  H   0.42855006230834      2.69696586577250      0.81677174933436
  H   -1.48637714981367      1.52839409251010      0.16935858108185
  H   -2.11143190334052     -0.09867259914559      0.38909215970743
  H   -1.38233033197774      0.75214057123807      1.75121898591008
  H   -0.69920397269617     -0.42986134640228     -1.76106294538710
  H   0.99991066143829      0.08469576749759     -1.76321642648482
  H   0.67366106451687     -2.97926994273485     -2.45002944041137
  H   0.68010692334257     -3.86819586555574     -0.92754132776939
  H   -0.82055343803607     -3.13531552733252     -1.51329497539239
  H   1.03239378300626     -1.74173186237753      1.40459959576971
  H   -0.67005357603720     -2.02930080353213      0.97602565640596
  C   5.08019477831389      1.28272604917927      0.03102557003874
  O   5.69628350069929      0.02615822958955     -0.20125584294307
  C   4.82180042587083     -1.08175863562235     -0.23860034390768
  C   4.04967152742682     -1.28849776966796      1.09314882514483
  C   3.92672435164505     -1.18225747497794     -1.53864434929443
  N   4.80981251859001     -2.25781455111678     -2.03395429693573
  C   4.25101039842298     -3.45124694057000     -2.65721987072115
  C   5.58337896716632     -2.34980100431827     -0.77939363491526
  H   5.83948881259295      2.05386773326445     -0.13113757579247
  H   4.24592837177480      1.46894927945160     -0.65553836868531
  H   4.70528740996101      1.37887423113181      1.05698008731994
  H   3.30669925337544     -0.50915365340367      1.23743588324675
  H   3.53307438556317     -2.24067840298031      1.06637442031899
  H   4.73973787498963     -1.28682667616311      1.93078610196857
  H   2.89909635542000     -1.48441850804136     -1.32267280532018
  H   3.91820481658683     -0.29419659592655     -2.16881549075287
  H   3.71566475222881     -3.17096975150240     -3.56464432812747
  H   5.05787826794964     -4.12764439406740     -2.94075454571463
  H   3.55826869237831     -3.99811935022124     -2.00944519581980
  H   6.65823991188008     -2.21112818647627     -0.90214994454452
  H   5.40261038161546     -3.24806058200820     -0.18816211478050
