40
Coordinates from ORCA-job dimer_008008/dimer_008008
  C   2.12619263034513      1.30696287543986     -1.25157996448225
  C   1.80533648241695     -0.08612403424475     -0.66108282231033
  C   2.73342233333057     -1.20591739999292     -1.20845425739641
  C   2.73143273631658     -2.33707710567589     -0.13342639554172
  O   4.07133839530416     -2.74405192249474      0.12313265051352
  C   2.07253446054652     -1.69372626888706      1.17059219680985
  O   2.77993860397643     -2.04169145482717      2.34952947901109
  C   2.00019401533317     -0.16324049677075      0.87343203504447
  H   3.14927447413430      1.58573220385833     -1.02397903443436
  H   2.00534892388611      1.30370992050856     -2.33006503129965
  H   1.46606323467990      2.06151064125487     -0.83625390004482
  H   0.77594666370230     -0.33961919093192     -0.89167862920330
  H   2.41405532386688     -1.56399799115198     -2.18003798285504
  H   3.74572453687373     -0.83229198026192     -1.30947537358872
  H   2.12784608907097     -3.18679559440003     -0.46806414707078
  H   4.05900056662714     -3.46842923600219      0.77780768906401
  H   1.06072057223271     -2.08836260318869      1.28971486509750
  H   3.66075243552305     -1.62220796229020      2.32495718843284
  H   2.93596669207012      0.30974613336001      1.14955612116049
  H   1.20378707060331      0.32472083980952      1.42292883811122
  C   5.78419877170376      1.43446186136086      1.42584561116033
  C   5.99043156317139      0.12412349834473      0.63162935778073
  C   6.40049054633340      0.35395401702943     -0.84548230784751
  C   6.98331916393114     -1.01104580966216     -1.31973263547631
  O   8.11608664389398     -0.77836348855892     -2.14899246610550
  C   7.39411935385388     -1.78687863441692      0.01559034581802
  O   8.72018972903063     -2.28474569583292     -0.04596634323902
  C   7.13408555189046     -0.76813254637913      1.17258691194890
  H   6.69413156203452      2.02465354366261      1.42397123154600
  H   4.99244210791483      2.03111926114460      0.98456886419604
  H   5.51860232828423      1.22408257898520      2.45672245389458
  H   5.07571058235173     -0.45663503292795      0.64377796573033
  H   5.57624044185108      0.68799270640192     -1.46369867172248
  H   7.18462822472521      1.10181119143695     -0.90122021497495
  H   6.21697464489630     -1.58699155229315     -1.84882012143174
  H   8.42543155644208     -1.63052855081839     -2.51099647828110
  H   6.73752264896533     -2.65131732335802      0.13873752768663
  H   9.32240233338503     -1.54157759548138     -0.24114109467341
  H   8.02179492822745     -0.16741241367403      1.33848754214583
  H   6.88390249327301     -1.26031493407424      2.10447944082706
