38
Coordinates from ORCA-job dimer_007990/dimer_007990
  C   1.21377693913766      1.38870553627324      1.25943363282319
  C   1.52607830720984      0.05809667836133      0.53624428235399
  C   1.81114100520993      0.24189466939903     -0.98903287948743
  N   2.76799604507104     -0.80658511636787     -1.29558621281989
  C   3.13415553575808     -1.15923731012883     -2.65494068113775
  C   3.38072372406973     -1.37087816523906     -0.18936994914128
  O   4.22195327044190     -2.23610080630322     -0.22234263568454
  C   2.79605991655861     -0.65866328470193      1.06444005201186
  H   2.04917188228714      2.07482147821281      1.16954981399052
  H   0.33492860463252      1.86029394563446      0.83100831035969
  H   1.02717346793307      1.21330781394229      2.31431425499041
  H   0.68035411847375     -0.61294810904806      0.64468039476233
  H   0.90215153859498      0.13251628177341     -1.58161807084165
  H   2.22221561975498      1.23343965251276     -1.19377563004605
  H   3.52998810632748     -0.29658284019288     -3.19674564104977
  H   3.90376874740112     -1.93260091754400     -2.61366812316766
  H   2.27469915925843     -1.54872489757439     -3.20624685707788
  H   3.53026479776678      0.05270717593688      1.43407593275864
  H   2.59086124284597     -1.37025105310397      1.85776476681775
  C   5.82311069879819      1.09794877319531     -1.18477604625979
  C   6.68266720824824     -0.05323102814546     -0.61256418987269
  C   8.18160571999156      0.03709350999957     -1.04558511946070
  N   8.91139783499209     -0.48890188621177      0.09330586473001
  C   10.32771300126724     -0.79863280269153      0.04068587495380
  C   8.17887055046287     -0.56480466970087      1.26705206078551
  O   8.60927958664267     -0.92617737124549      2.33543703714942
  C   6.73628676504034     -0.08361527322599      0.93737709748126
  H   6.21282405410048      2.05881774850569     -0.86637905017056
  H   5.82371816130986      1.07067487994427     -2.26939208025413
  H   4.79759829088434      1.01476371014595     -0.84416190843563
  H   6.28037093650709     -1.00211903120929     -0.95423953750266
  H   8.37297031099467     -0.55317864018802     -1.94242615161361
  H   8.46655138824428      1.06942205503038     -1.26198698431805
  H   10.92707846642339      0.08773657232801     -0.18322847740286
  H   10.62850465040607     -1.18590155558117      1.01643865958373
  H   10.53702772043714     -1.55663718483647     -0.71774007899797
  H   6.58940392605427      0.90250082049140      1.36916460332565
  H   6.00238370046150     -0.75865535844653      1.36731166586484
