42
Coordinates from ORCA-job dimer_006928/dimer_006928
  C   0.54693055713388     -0.71129379453941      0.29453567466985
  C   2.01951239764221     -1.06784526727507      0.55869218451852
  C   2.28012944232461     -2.57930241754267      0.67108775258308
  C   3.10595944818627     -0.16612677561402     -0.01156239281801
  N   2.84972884106029     -0.23210699353168      1.43184245063087
  C   2.29696739928756      0.94194455143887      2.11955091360064
  C   3.47720173001995      1.83357447976112      2.64481842319319
  O   4.29951409988411      2.30793095898113      1.59343367810171
  H   0.41219677236369      0.34816132046556      0.11286337428282
  H   0.19377483416802     -1.25187166836687     -0.57832549045196
  H   -0.06734479582809     -0.99967355361986      1.14259120694530
  H   2.05184619073820     -3.07498275049108     -0.26757463321658
  H   3.31751196661344     -2.76916308846665      0.92683637793380
  H   1.65398287761698     -3.01011951659755      1.44641409157763
  H   4.03836326290693     -0.58945380072003     -0.36117449801277
  H   2.79440499833954      0.71841176584896     -0.55577517211482
  H   1.65680371675708      1.55004688816694      1.47917134032867
  H   1.69913364078956      0.59668714897606      2.96398889013770
  H   3.04886347947015      2.70088484829477      3.15815474805488
  H   4.04136677289219      1.26056404074764      3.38979817258158
  H   4.95500470083376      1.61848845441567      1.34082776399402
  C   8.97058310782579      1.47267232627717      1.04655622488961
  C   7.55053448492295      1.40037496257444      0.46031592186401
  C   7.04701340314978      2.74098040279782     -0.10026426000431
  C   7.08572747627647      0.10944125026135     -0.19470273858877
  N   6.52072624656580      0.55763690168313      1.08944793387118
  C   6.81583040936842     -0.21252838278039      2.31025477135712
  C   5.81505545184098     -1.41316441205186      2.44536104946189
  O   6.00516549053579     -2.38712621112018      1.42094101230905
  H   9.36140261574843      0.49422645973152      1.29821140300671
  H   9.63609345408738      1.92359046476860      0.31667273178881
  H   8.97693732081750      2.09239923161421      1.93890619874683
  H   7.71373990132077      3.09020119320133     -0.88281906731899
  H   6.04854630671212      2.63540827908488     -0.51148428528851
  H   7.01300916154321      3.48958246758432      0.68627656295615
  H   6.42702214556468      0.15086415761074     -1.05424924288788
  H   7.76969796819591     -0.73219365621419     -0.19368725153969
  H   7.83315293058446     -0.60406428128328      2.32879602407119
  H   6.69578891502834      0.45249047808006      3.16701285430089
  H   6.00198427145262     -1.91307091734896      3.40079715913148
  H   4.78364186558405     -1.03094885804105      2.45015167174114
  H   5.64704908267314     -2.03637846476152      0.58528231561172
