38
Coordinates from ORCA-job dimer_006998/dimer_006998
  C   -0.34728918863148      1.20514618209945      0.15819819997523
  C   0.30976218027151     -0.15716766086867      0.48016461130127
  O   1.01970968253531     -0.72480490763188     -0.65914419860327
  C   2.24618304713693     -0.75457462218015      0.00848243527683
  N   3.37490192198960     -1.12157983017149     -0.35620831405818
  C   1.65113291929639     -0.17171440106660      1.31426987341208
  C   2.23114095858464      1.19501115730614      1.73573006241235
  C   1.64995519745591     -1.16749316239031      2.49719205700610
  H   0.36360207561192      1.87706133225927     -0.31003817817801
  H   -1.18324911096992      1.06035387375612     -0.52060587271070
  H   -0.71663846009852      1.66412217356604      1.07091904542828
  H   -0.43780537376695     -0.85840280296606      0.86219245562864
  H   3.42197736170592     -1.47084090368194     -1.32043150652330
  H   2.30145359410981      1.87546494387666      0.89503183726149
  H   1.60647704657618      1.64765226019311      2.49930336518971
  H   3.22697973944252      1.05546440296037      2.14483123366860
  H   2.66114897597326     -1.30765601239990      2.86683907617224
  H   1.03764390560473     -0.78230693708224      3.30681438056749
  H   1.25767680872009     -2.13241158513398      2.19295631990820
  C   5.84576773258773      1.38451680769091      0.05229843717480
  C   6.82293357857859      0.19565466676208     -0.09059878230950
  O   8.19174183658692      0.53243216785303      0.28373241397853
  C   8.24541554022496     -0.43830624796344      1.29019055190024
  N   9.14322106974645     -0.75255094022001      2.08782124456261
  C   6.80415930981321     -0.93092760294396      1.01381081894739
  C   5.81682589827510     -0.74700845214688      2.18334287034225
  C   6.72792586451660     -2.36886770174906      0.45376302272431
  H   5.94998487191825      1.85657117934077      1.02243080804994
  H   6.04646607463118      2.12567302941821     -0.71558574969018
  H   4.82674356766982      1.02412369630290     -0.06016526114026
  H   6.78344299166450     -0.20504507039934     -1.10711676554400
  H   10.00872961886351     -0.20764181498306      1.99861698415768
  H   5.89833349763973      0.23903916549618      2.62423529561618
  H   4.80484999952963     -0.89486156001981      1.81850395965469
  H   6.02695848431308     -1.48333106698609      2.95255332969325
  H   6.98089764634028     -3.08193119473375      1.23223041858214
  H   5.71732325253385     -2.56866402762012      0.10929222006632
  H   7.41675888301847     -2.50266053354244     -0.37332069990153
