40
Coordinates from ORCA-job dimer_009557/dimer_009557
  C   3.44096421683874      0.17583186755128     -3.19347098221687
  O   3.12440985696091     -0.14344346924900     -1.84801560450653
  C   2.03084961451579     -1.01715668403557     -1.66094351025090
  C   0.68998039292110     -0.42567675659657     -2.17142367679975
  C   2.32134087002916     -2.50920772986353     -2.08556626216500
  C   2.45837556698762     -2.92435907133773     -0.58516179385667
  C   2.03065883908754     -1.47207418497114     -0.13485292217571
  O   2.88758967333933     -0.77045008457119      0.72448786487714
  H   3.62746274419947     -0.71848157111429     -3.80017061435144
  H   2.65116733506377      0.76550144336509     -3.67362909715960
  H   4.35469682228954      0.77549785664018     -3.18292153288606
  H   0.67322146828537     -0.36069605926876     -3.25375050542195
  H   -0.13095663444784     -1.06164573014670     -1.85911082715066
  H   0.53895493127870      0.56604779721362     -1.75616229175641
  H   1.49447066372315     -2.97868921180730     -2.60404388248425
  H   3.22543992195920     -2.63382852118059     -2.67118208313902
  H   1.80165137411547     -3.72040432512726     -0.25529099616856
  H   3.47256283604376     -3.17035722983066     -0.29337985813616
  H   1.02795332276433     -1.44906455505083      0.29685634281109
  H   3.74380884507315     -0.62804120781416      0.27211756391343
  C   5.86289002043904     -0.45145280602719      1.74012026426617
  O   5.82216035081937     -0.80067790277241      0.36251568551246
  C   6.51756662985451      0.04917280303613     -0.53378912398190
  C   5.89279148421105      1.46432918659277     -0.61952692208610
  C   8.08420107622088     -0.02975239301037     -0.37417592346078
  C   8.14557769885896     -1.11448732552134     -1.49580062692167
  C   6.65485537312946     -0.77571197680121     -1.88794393977985
  O   5.75518846647511     -1.83840346314793     -2.06646931949854
  H   6.88881292865905     -0.37919801026533      2.11826493057751
  H   5.35050530852377      0.49761857776588      1.93922739188928
  H   5.34135198049355     -1.24031487892270      2.29255151502712
  H   6.06228986313651      2.02204348311256      0.29535756623457
  H   6.34392701112322      2.01380540078969     -1.43828332680006
  H   4.82226085006976      1.38864246809906     -0.79488305476307
  H   8.56550260689950      0.90013916566482     -0.65313431892282
  H   8.44712094104616     -0.33233898857143      0.59965944229658
  H   8.88852056513067     -0.97109048039479     -2.27116126689117
  H   8.23821209013122     -2.11953720214284     -1.09900254515309
  H   6.60840640808500     -0.12464165381122     -2.76308887780478
  H   5.51346244666361     -2.17298467947689     -1.18047204871566
