36
Coordinates from ORCA-job dimer_006983/dimer_006983
  C   0.22835875504021      1.42861503461696     -0.98031892143361
  C   0.68606205904288      0.05754581575018     -0.41762978152752
  O   -0.26209248453605     -0.97408424338141     -0.66260593321047
  C   2.11918223043890     -0.36431161776028     -0.90726511970292
  O   2.65324058333231     -1.21708522953844      0.10528541187019
  C   1.83872997533935     -1.19922731737283      1.27996962487438
  C   0.90199982193815      0.05092446962262      1.13098914848274
  O   1.55131578062718      1.25942563531626      1.49213337330625
  H   0.92445099356518      2.20560398268777     -0.67945367311393
  H   0.18224248490648      1.39760610390277     -2.06478667245104
  H   -0.75669590125700      1.67421061231178     -0.59548636100910
  H   -0.43699272294700     -1.04059835483563     -1.61937891727526
  H   2.08108362175532     -0.90055135410606     -1.86139714500817
  H   2.75072472513752      0.52333876538181     -1.03048753589483
  H   1.23981643491362     -2.11656412812589      1.34532997500748
  H   2.48053025649418     -1.13422383564376      2.16519126477737
  H   -0.05358224400828     -0.09160160829032      1.64799447209012
  H   1.71394459384939      1.27437706173986      2.45354420559296
  C   5.18491208407191      0.65842177648569      1.54169598297568
  C   5.90857482235854     -0.36889224301043      0.62850688691313
  O   5.34574589407379     -1.66565926416195      0.71490426739565
  C   6.01513270044934      0.11056660584577     -0.86706325035045
  O   7.18342664697526     -0.49913681455498     -1.41350382263344
  C   7.95744532553220     -1.11908625048484     -0.38775778096744
  C   7.42322672833808     -0.55013714741337      0.97427442987379
  O   7.97530125071129      0.72015690807709      1.28955880633941
  H   5.72032510194171      1.60203312236393      1.53943563207668
  H   4.17010176239098      0.82700660368864      1.19474692070478
  H   5.14954995237191      0.28143122755717      2.55807153329937
  H   4.40754394518546     -1.63436599817664      0.42818116699179
  H   5.13613732434626     -0.19282413437558     -1.44329587291476
  H   6.10119781676272      1.20215727868142     -0.91090665672075
  H   7.82917305998292     -2.20854851126432     -0.41084579576417
  H   9.01681226120970     -0.89110280200651     -0.54258195006862
  H   7.54082609098062     -1.27199918802879      1.78950626522532
  H   8.93973126868446      0.63819903850231      1.40415982224938
