38
Coordinates from ORCA-job dimer_007521/dimer_007521
  C   1.14368944398566      0.82083020488059     -0.46536744876371
  N   1.59235525439422     -0.49815927700344     -0.00017196888167
  C   2.99087116837059     -0.90700911192922     -0.18710269879139
  C   2.42216236763229     -0.63229388775871      1.19698742367969
  C   2.90379743189521      0.59985018471202      1.97508146446624
  C   2.05838621630377     -1.83616214801396      2.09092294781495
  C   0.99230152590217     -1.48388927303132      3.06760629001620
  C   0.15422241555968     -1.19889941438460      3.83432367754638
  H   1.91556629229054      1.59236439201683     -0.43261042348004
  H   0.79639846830087      0.72697810355736     -1.49529426965968
  H   0.30239602153997      1.14419425589810      0.14950274617157
  H   3.15137725900711     -1.92592266298520     -0.51885798492197
  H   3.71019592294741     -0.18928138561814     -0.56761369559024
  H   3.28948009961585      1.36105791437569      1.30876078608458
  H   2.08870042805450      1.01410422792820      2.56118805351136
  H   3.70302028981570      0.30982703547163      2.64989589239305
  H   1.71398918360928     -2.65660560613984      1.46222636955232
  H   2.94619905966598     -2.17034081136696      2.63018064931330
  H   -0.61054088774719     -0.94007589057057      4.53309842729263
  C   6.31101083174947      2.06241156397139      0.85901115394641
  N   6.03148160013568      0.64804419459470      0.57745200169484
  C   6.87679766139418     -0.10183565932743     -0.36061023095652
  C   6.87176916883583     -0.41417173840061      1.12926826457342
  C   8.11530518250632     -0.09551753930375      1.97192685055450
  C   6.09494559030987     -1.66006809493463      1.60471092642493
  C   5.70447227454458     -1.55567043699113      3.03608467747552
  C   5.39405435412220     -1.47028560705256      4.16203285704562
  H   7.36836572506638      2.32911288174559      0.80432562579293
  H   5.76647847806441      2.67536019457282      0.13913256694105
  H   5.94286770533895      2.30179800895066      1.85799540451421
  H   6.36329098549976     -0.75709372363183     -1.05491560304710
  H   7.76375267535918      0.37129854558149     -0.76732644868637
  H   8.70228703967455      0.70363667640185      1.53575031056992
  H   7.82127318659662      0.19213143895325      2.97753699800573
  H   8.74329295810205     -0.97856161022199      2.04224859600732
  H   5.19719048951572     -1.76719243908826      0.99728246912037
  H   6.70826627354627     -2.55058831526790      1.46251582362874
  H   5.10613985849324     -1.39386319059007      5.18858951864060
