36
Coordinates from ORCA-job dimer_006440/dimer_006440
  C   1.49133081410585      1.39272506458126     -0.55014522106152
  C   1.40636770109734     -0.15244463050622     -0.64460273639162
  C   2.75526622700484     -0.91635991007688     -0.86925739120168
  C   2.47801214420020     -1.54954152035847      0.54293811584242
  C   3.49403706525552     -1.17840121559301      1.65782384288133
  O   1.24412323193173     -0.78774006277509      0.65048766230880
  C   2.21575977709634     -3.01892456683944      0.52106998816696
  C   2.00263655913651     -4.17098891461433      0.50587373390944
  H   2.27692426674206      1.68668454575664      0.13786281157846
  H   1.70399764058025      1.81554589884859     -1.52787383246823
  H   0.54869921605752      1.79775228378895     -0.19311324848480
  H   0.61047067795985     -0.44653216849100     -1.33657436291126
  H   2.76704865384584     -1.61919773906689     -1.69432167108243
  H   3.63899531189558     -0.29237615875203     -0.90814990066943
  H   3.60905265658891     -0.10053380890812      1.69880506035772
  H   3.13372395653322     -1.53134316768158      2.61948806528160
  H   4.46141914850024     -1.62965885128681      1.44809512254166
  H   1.80517111857960     -5.22171707320608      0.49674993926733
  C   7.47379721443471      1.80344621936467      0.25683715407541
  C   6.49109123454350      0.66927103784450     -0.13016940076744
  C   6.72785961547363     -0.02560666003456     -1.51419903717356
  C   7.00842639976663     -1.31977767539379     -0.66508814506160
  C   8.45956663436188     -1.86972879501685     -0.73928578920179
  O   6.76836752497569     -0.57750873139831      0.56041248392758
  C   6.01444192170540     -2.41438283954826     -0.85528493356860
  C   5.23119057119541     -3.27330862212848     -0.99987234450278
  H   8.49952762308687      1.48533616394509      0.10222946286373
  H   7.28428097981846      2.68452759569593     -0.34991062364927
  H   7.34591072802379      2.06643178318109      1.30324991389489
  H   5.45847870564639      0.99405884270358      0.03192206089055
  H   5.86314103740072     -0.08397641887091     -2.16586510878393
  H   7.58419644786954      0.33696039678364     -2.07121805165187
  H   9.16714547375417     -1.06178493481076     -0.58284886483689
  H   8.60720794979085     -2.62367964120429      0.02893510021872
  H   8.63651887836492     -2.31856465259239     -1.71270266062231
  H   4.50769937967533     -4.05272876433928     -1.12173564791557
