36
Coordinates from ORCA-job dimer_004540/dimer_004540
  C   2.44911166290420      0.78909430558417     -0.64262938564206
  N   1.98748606912525     -0.46992361974203     -0.07562356661511
  C   1.60521852750842     -1.59264672020372     -0.77815365323469
  C   1.27876999740496     -2.56608583135722      0.10467181169913
  C   0.78995736205445     -3.96426549944101     -0.22351630631009
  C   1.49171024558695     -2.03078982200107      1.41819397604810
  C   1.92820747775017     -0.74826974026970      1.26633306210550
  N   2.24817463856142      0.25567724992512      2.20519761515302
  H   3.53145140958311      0.78090669472843     -0.80009259010161
  H   1.95621679146884      0.95792511340808     -1.60037039861269
  H   2.19074145767549      1.60112565487309      0.03958046710475
  H   1.60132203339182     -1.59838652098464     -1.85409841658537
  H   1.45919180176284     -4.71745972040402      0.18446910843038
  H   -0.19759851031688     -4.13933021712423      0.19599526938422
  H   0.73255922275389     -4.10765667144621     -1.29714564081688
  H   1.32237575962024     -2.53815613580455      2.34621181623082
  H   1.90538122251860      0.05920814798638      3.13502771102540
  H   3.22827207665031      0.52027563892687      2.21431291799036
  C   6.75745045290769      1.16974344334117      0.89199453450760
  N   6.09553348367714      0.09920024904836      0.16097119498066
  C   6.11447847221647     -0.09611661269905     -1.20899096380652
  C   5.38496697123110     -1.19826050795061     -1.49703983016493
  C   5.11022671120053     -1.77928939339454     -2.87068416110751
  C   4.90690348134909     -1.73006078941114     -0.25201919045418
  C   5.36031106536022     -0.91128241936848      0.73341903669705
  N   5.12563333882835     -0.91663712715137      2.12542146688434
  H   7.69976247696750      0.83447241259226      1.33580762560176
  H   6.97140323923735      1.99302011037424      0.20973406786797
  H   6.10555421194467      1.53463548156603      1.68893584353146
  H   6.65133430751080      0.57538065960909     -1.85594626639264
  H   5.49321759606245     -2.79410730268414     -2.94571691021371
  H   4.04116230749838     -1.81648971213905     -3.06462156393346
  H   5.57831355943398     -1.18010420184400     -3.64429930614949
  H   4.27950303498668     -2.59042096067666     -0.12425619705872
  H   4.48928276005827     -1.64918364468544      2.41280686544977
  H   5.95523128352389     -0.88381799118009      2.70566195650732
