40
Coordinates from ORCA-job dimer_006854/dimer_006854
  C   2.31368345155371      1.35385363093429      1.25951195486077
  C   1.50480723289707      0.02320319314626      1.20082362486579
  C   -0.01590720159176      0.33190803319354      1.40679020798745
  O   1.73848955933402     -0.52384669681175     -0.09093875708219
  C   1.37996638173249     -1.88914409189301     -0.23818658703903
  C   2.23653322377115     -2.80274326354656      0.69065949391605
  C   2.32912209685415     -2.17425568886771      2.07752834483868
  C   1.99466009327648     -0.92770478662830      2.30469064122136
  H   3.37552376481355      1.15333531045098      1.16406437705092
  H   2.00431514403722      2.00356597821584      0.44747950311352
  H   2.13380669113694      1.85793975397792      2.20265203533703
  H   -0.36328701409361      0.99523238552853      0.62168607658342
  H   -0.60599250545556     -0.57671281283358      1.38681766192949
  H   -0.16636997765731      0.81517001661298      2.36588701126465
  H   0.31769207353487     -2.04802218607312     -0.02432699476783
  H   1.54672509283058     -2.14897811865929     -1.28727445673532
  H   1.78452364892957     -3.78897753839001      0.75441990199604
  H   3.23400567737997     -2.93166929387508      0.27617114941120
  H   2.68717353219795     -2.80755647914792      2.87775112221190
  H   2.05194180379667     -0.49903094741269      3.29459122026746
  C   5.19692446523838      1.40234727200731     -1.58165130399327
  C   5.74743966137054     -0.04183970685791     -1.38418756229019
  C   5.45405830202304     -0.89302024694800     -2.66431206437781
  O   7.14782613433112      0.09637785479473     -1.18124778022579
  C   7.77660066587411     -1.01561264072534     -0.56582835364121
  C   7.22833323554917     -1.23835132711048      0.87604235353368
  C   5.70319920424216     -1.19863877315231      0.83743562244657
  C   5.05148222492514     -0.68233631165176     -0.17450628362963
  H   5.40582031910697      2.00013475039424     -0.70087330056693
  H   5.67533657216385      1.86323972947433     -2.43931583350604
  H   4.12427955770662      1.37351827099340     -1.74301673068233
  H   5.93802645036091     -0.44146835615451     -3.52360168352026
  H   5.81872120777041     -1.90694035185635     -2.54893489655744
  H   4.38473693757982     -0.93045912642704     -2.84197677640034
  H   7.63631134576001     -1.93119830604848     -1.15092054502457
  H   8.84841130600548     -0.80078553330777     -0.54029361517439
  H   7.57469376929771     -2.19318212126454      1.26135856376863
  H   7.60728159463085     -0.46499189493423      1.54060476656403
  H   5.17371440900816     -1.61515127112583      1.68283347208307
  H   3.97057930277628     -0.66369738002063     -0.20964577603714
