38
Coordinates from ORCA-job dimer_007630/dimer_007630
  C   -1.90088701655299      0.77318718321383      1.47159968684165
  C   -0.35998087619662      0.92592117298703      1.35574548276934
  C   0.35644065335557     -0.04704294564997      2.32844966488825
  C   0.06076948019694      0.68598270910155     -0.11909538342639
  C   1.59349138722891      0.59369977092253     -0.44399444318770
  C   1.26020720822812     -0.87342298052039     -0.79960900366939
  N   1.90348513736566     -1.86445431517154     -1.18392515661212
  O   -0.10100805174553     -0.70572817205793     -0.52584754324781
  H   -2.22301393212331      0.95459667190569      2.49125034225665
  H   -2.41044783566869      1.47458477508574      0.81973655617773
  H   -2.19577605967835     -0.23288192597212      1.19104251746951
  H   -0.08438886355628      1.94688475247251      1.60669529619105
  H   0.16403846843695     -1.07426879839911      2.03941071146351
  H   1.42882022534972      0.11842627000194      2.35078198348408
  H   -0.02136776053238      0.09792503358500      3.33436039887634
  H   -0.49547883086086      1.35403931557347     -0.78276102439199
  H   1.92962335342338      1.19233014500546     -1.28702943467451
  H   2.26991977112760      0.73474952363025      0.39231277286363
  H   1.33816692114696     -2.70855574596774     -1.33436731123943
  C   7.04675748890792     -1.79332840584529     -1.19066906362083
  C   6.31930368439231     -2.25332930997514      0.10143880371408
  C   7.21774257658025     -2.01293431873299      1.34225342673612
  C   4.96577490078059     -1.50499388372787      0.21631187549208
  C   4.11043030499706     -1.70193726194380      1.51663954622059
  C   4.37960121986510     -0.19456569808331      1.72339191092693
  N   4.05527852224208      0.65672530048870      2.56906092285294
  O   5.13292946292778     -0.09268703670061      0.55070565322783
  H   7.99183190020204     -2.31387847325331     -1.30060495936037
  H   6.43847569574314     -1.99291148035902     -2.06648985093610
  H   7.24384928832281     -0.72713370222835     -1.14525821317582
  H   6.09330257541290     -3.31343218678888      0.02256243212317
  H   7.42063748320877     -0.95345530364258      1.45588612149645
  H   6.75059704638526     -2.37391583253914      2.25076664208181
  H   8.16298095168478     -2.53022152688988      1.22058076150776
  H   4.37677121575194     -1.62497101458835     -0.70044045433559
  H   3.06814734362840     -1.95773016889832      1.34522873458728
  H   4.52740814166336     -2.35421149527403      2.27716991635967
  H   4.41658746935838      1.60044345423607      2.38607878426952
