42
Coordinates from ORCA-job dimer_001359/dimer_001359
  C   -0.14047002652198      0.90862816501247     -1.96241354370735
  C   0.68440889055553     -0.19221864451495     -1.29009896678388
  C   2.15056174298398      0.00935767910771     -0.91318057564167
  C   2.88368240336837      1.32435316907077     -1.19018818029492
  C   1.09294506497905     -0.12766264982217      0.17982947014113
  C   0.70539742436836      1.07962022918879      1.03967866675440
  C   1.06281275053997     -1.44823405512699      0.96367302600685
  H   0.13194026012648      1.89428947560515     -1.60912752574933
  H   0.00875311150106      0.88514615490153     -3.03801016997740
  H   -1.19805584475639      0.76076818353846     -1.76434911292678
  H   0.43471845031447     -1.17888455564102     -1.64757344021271
  H   2.78147355823530     -0.85533221601676     -1.04475642704886
  H   2.24259904091076      2.18487489380035     -1.05328323225787
  H   3.73602212636573      1.42616369266719     -0.52567152405984
  H   3.24938868555096      1.33875133469880     -2.21257864148446
  H   0.72740823000327      2.00639267927550      0.48308044011364
  H   -0.29678955480514      0.94695413758616      1.43515836760341
  H   1.38852340051415      1.17274193175998      1.87816417388020
  H   1.73489737517715     -1.40213859516626      1.81447983538852
  H   0.06127744501294     -1.64594456998817      1.33287558065196
  H   1.36465919142874     -2.27754927739066      0.33441665277129
  C   6.66308153620848      0.53892273585940     -1.49111407866879
  C   6.08565409764122     -0.38932210826795     -0.41901115682067
  C   6.95442673725612     -0.98110106557557      0.68893749740483
  C   8.45140186443444     -0.67854534601068      0.79755771103288
  C   5.88304984861961      0.05244216095158      1.02868040292830
  C   6.28055143317182      1.46419083283987      1.47140217870204
  C   4.62816217135985     -0.46417903671080      1.74749356751770
  H   7.43382723423664      1.18725899162968     -1.09616191968830
  H   7.09762997957704     -0.04556968503351     -2.29683368431538
  H   5.88011942322516      1.16336696715014     -1.91045784954697
  H   5.32181547955690     -1.04665116645899     -0.80335548863936
  H   6.71130531920504     -1.99392549551934      0.96956957796928
  H   8.68466404143257      0.33457116499838      0.49803778285893
  H   8.78892249009610     -0.81259130600143      1.82113877663068
  H   9.01785884330617     -1.35432910376765      0.16339482645360
  H   7.16365962356868      1.82336750428205      0.96120027545231
  H   5.46971355865819      2.15784098222012      1.27189266799483
  H   6.47872897119447      1.47612306997739      2.53864518422317
  H   4.79979306968380     -0.51667071386755      2.81805470159950
  H   3.78638630881714      0.19662353040333      1.56894832836073
  H   4.36215859389716     -1.45361837764440      1.39460483938437
