36
Coordinates from ORCA-job dimer_004830/dimer_004830
  C   1.82123252211550     -1.33489232911587     -2.19010013221227
  C   1.22376632729976     -1.74740570168415     -0.81355801557167
  C   0.46105756450016     -0.61928257817192     -0.14849915833177
  C   0.61769912245471     -0.04834201034217      1.06581869166965
  C   -0.37290132451070      0.98659167430909      1.20559594471637
  C   -1.09173676209077      1.00338876805740      0.05079084182037
  N   -2.13379309886204      1.84465527208852     -0.38354736354433
  N   -0.58874420670983      0.02834022097462     -0.77936152205155
  H   2.46714800175694     -2.12133902908234     -2.56889437716381
  H   1.03885274287486     -1.15151498515785     -2.91804899573491
  H   2.40782315613392     -0.42978975529868     -2.08622493701341
  H   0.57843300529936     -2.61325342305095     -0.94568796204342
  H   2.02793992211431     -2.04353829015647     -0.14647022176757
  H   1.35618402867729     -0.32545272364620      1.79470141898217
  H   -0.51801835482227      1.62785109888979      2.05157594859091
  H   -2.43818226455669      2.52675850855657      0.29534814942731
  H   -2.89617557753625      1.40260691445973     -0.87810872270779
  H   -0.91697575713084     -0.15979367477350     -1.71456625930628
  C   3.40711385980216      1.87807333060014     -0.22930059958750
  C   4.22948663580444      1.18525299121019      0.89528835541031
  C   4.34983303068691     -0.31510982970886      0.70420842064382
  C   4.14117035720318     -1.33381507004760      1.56742970568777
  C   4.43189358827510     -2.56691339538980      0.88453141556902
  C   4.80007029424960     -2.23787528299925     -0.38300792222564
  N   5.11618608102726     -3.03910746969241     -1.49635895254832
  N   4.75596074041498     -0.86834673248107     -0.49803764914322
  H   3.32265703385929      2.94145584346094     -0.03055342291545
  H   3.88326748960421      1.75400060757852     -1.19487224418092
  H   2.40745514383622      1.45637114831992     -0.27737777313446
  H   5.22018986637705      1.63376749053187      0.94743247859922
  H   3.75011014037804      1.36127518488549      1.85343969120709
  H   3.82168491980638     -1.23800873229799      2.58811986820359
  H   4.36309154913457     -3.55696804957848      1.28855965936591
  H   5.13629332667695     -4.03129681296567     -1.31156967504909
  H   5.88004847936704     -2.72388357090941     -2.07815995857982
  H   4.94832641648893     -0.35477560737208     -1.34465672508035
