38
Coordinates from ORCA-job dimer_003077/dimer_003077
  O   5.09863920086059      2.03002303181639      2.44611097567263
  C   4.16937938347288      0.95874336038158      2.52935662208217
  C   3.31166648391813      0.80312059604965      1.22947397696219
  C   2.43818930342619     -0.47912120118700      1.26961757230709
  C   1.68384215698351     -0.68022898419566     -0.04965859237559
  C   2.42604395705268     -1.28075201862424     -1.23792759681657
  C   1.34539576699228     -2.08941249413168     -0.52259028986485
  H   5.71159539199807      1.85367945760079      1.70068924685168
  H   4.66838444845196      0.00528853305191      2.74167850221992
  H   3.50673521993489      1.16401401361765      3.37496226846713
  H   2.68274829485284      1.67814824594412      1.10574496093978
  H   3.97003387243997      0.75795545399904      0.36934823117314
  H   3.07017006829237     -1.34117224123239      1.45422247313801
  H   1.73123395238740     -0.41909690689821      2.09185852893871
  H   0.96310676866160      0.09145778610516     -0.27441580884439
  H   2.21123254468741     -0.90517888083456     -2.22635749525169
  H   3.45473138223526     -1.56968700814220     -1.09329868440636
  H   1.65495679225135     -2.91827252059305      0.09525171944107
  H   0.40840233719975     -2.25128432774814     -1.03336679863962
  O   6.63676442790489      1.39456409026249      0.10488032206870
  C   6.69775932330547      0.20269008492052     -0.68249079301317
  C   6.50771336895008     -1.02489905334460      0.25349562842305
  C   6.60133387327354     -2.35712298509380     -0.53739564265266
  C   6.37398362998921     -3.55988711468691      0.38427946388042
  C   4.94879940484444     -3.98222118711815      0.72206248559692
  C   5.81077644587184     -4.85690762183582     -0.18531338279340
  H   6.81290307745152      2.17302464651029     -0.45558701413162
  H   5.91651864635355      0.19761735514852     -1.45354417833623
  H   7.66431696125611      0.11986845055841     -1.19495150178141
  H   7.26595090753362     -0.99927986406612      1.03006498076287
  H   5.54105807453230     -0.96142782803486      0.73995513186309
  H   5.85974079399282     -2.36461053087644     -1.32926043420655
  H   7.57648264371801     -2.43655744478946     -1.00928646789008
  H   7.10286636897108     -3.65645431119893      1.17482656062711
  H   4.73750170482859     -4.33321993564081      1.72058901014502
  H   4.13831795178986     -3.43264623184655      0.26989972907033
  H   5.57114625160016     -4.88571397718652     -1.23720394123617
  H   6.17859900373343     -5.79316073966036      0.20628554760931
