44
Coordinates from ORCA-job dimer_009907/dimer_009907
  C   2.57111442483825      2.22797110550736     -1.12754933768132
  C   1.38134408160509      1.89221300100594     -0.21977438231792
  C   0.28895078468998      1.02700722588719     -0.86328379048931
  C   0.83736936370043     -0.36396107907466     -1.27244262151031
  C   -0.28625567714625     -1.30334684960759     -1.79304769371728
  O   0.30809965271722     -2.56020345977866     -2.13295647858435
  C   1.65862416291381      1.67795956576507      1.26308731800724
  C   0.93883833129798      2.94039582463072      0.79509570238550
  H   3.25219095349018      2.90520843422500     -0.62474783805956
  H   3.12302349662926      1.33175231924956     -1.39260809034367
  H   2.22940840467964      2.70285633744988     -2.04203412910076
  H   -0.52683752413825      0.90276077167464     -0.15990205724649
  H   -0.11041327364458      1.53508764221224     -1.73580049918479
  H   1.58409976863033     -0.25304751112089     -2.05022439109027
  H   1.31732981650478     -0.82962970352837     -0.41812298612213
  H   -1.05015778945419     -1.42812538267467     -1.01571643585704
  H   -0.77374595345709     -0.84646769307850     -2.66379097373601
  H   -0.38016891844518     -3.18330644154808     -2.43254744146555
  H   1.08465878229128      0.92994644773347      1.78673252280187
  H   2.67528260219798      1.77137023863988      1.61075453422556
  H   1.47598092891430      3.87517115162623      0.83051742948389
  H   -0.11456286401083      3.03341527048371      1.00737872559922
  C   4.82571262408918     -0.63246520976947      0.69662867890231
  C   5.74731750859970     -0.71967816052037     -0.52625452155475
  C   5.46326646151189     -1.89016995455487     -1.47879936920581
  C   4.06861777345428     -1.76250780670275     -2.14315862945539
  C   3.80000510381686     -2.90234370406894     -3.17882988466258
  O   2.57630421160608     -2.72503778225504     -3.87963760455804
  C   6.22585935809193      0.58640438347427     -1.14771902178903
  C   7.19843958963183     -0.28389224065078     -0.35533039298605
  H   5.13377298343202      0.17739612723943      1.34808725928598
  H   3.79899572196843     -0.45128171464931      0.39646424419864
  H   4.85826346895492     -1.55812741096717      1.26275085914643
  H   6.22679878290590     -1.91615507829017     -2.24811617219663
  H   5.52575717366724     -2.82564614380436     -0.93162322857829
  H   3.29970341829049     -1.79195697941834     -1.38168023707112
  H   3.99643416872363     -0.80452662320787     -2.64621163419258
  H   4.60035406025498     -2.90593227243925     -3.92422268419373
  H   3.84023419414628     -3.86981030827828     -2.66241279219845
  H   1.83337255580425     -2.66863477588181     -3.24109621421207
  H   6.33911062086550      0.62810566218920     -2.21953378824228
  H   5.89716900004928      1.51372300391343     -0.70630151280741
  H   7.51746857962244      0.06299298894656      0.61480717198162
  H   7.95957479470750     -0.81999231498344     -0.89989391760686
