40
Coordinates from ORCA-job dimer_006133/dimer_006133
  C   0.43423803704138      1.16458341040336     -0.37111115511865
  C   0.60738614364466     -0.23042204516546      0.25039311432496
  C   1.85102860580751     -1.08783857106891     -0.18613801380153
  O   2.89733306698716     -0.25959184084372     -0.64402309784878
  C   2.00349585325488     -1.55738211186059      1.31289610003631
  C   1.07193958653232     -0.35907270456639      1.74491059145961
  C   1.89291523046550      0.85895659870716      2.24846416702014
  O   -0.00472707178722     -0.66792094451624      2.61038930790604
  H   1.36361609441000      1.72086789545661     -0.33498550367783
  H   0.13625874502223      1.07566985385801     -1.41094409892290
  H   -0.33216351666836      1.72075042714559      0.15950970350909
  H   -0.29862638613768     -0.81533773720278      0.12900236575831
  H   1.62538607421088     -1.89116145970630     -0.89462065818700
  H   3.72278716157034     -0.78516020120724     -0.71751132443519
  H   1.53015871590930     -2.51611235576580      1.49101868461448
  H   3.00691673283914     -1.56301777468003      1.71723953468970
  H   2.68211045122118      1.08956997599087      1.54090314673729
  H   1.25190014922051      1.72776412174332      2.35370759987912
  H   2.34454507586945      0.63945721966476      3.21038594772386
  H   0.31922597291445     -0.73206057711094      3.52747884619527
  C   5.64355728765309      1.81155420062385     -0.20683574219016
  C   6.32593010871636      0.53539248084364     -0.72503368622792
  C   7.89321026283520      0.44486905114887     -0.66015598890574
  O   8.40118379786183      1.29536489488345      0.35399386406859
  C   7.75431867758445     -1.06328524527199     -0.22051194115276
  C   6.24014394525481     -0.78730281286623      0.11797249368538
  C   6.00589017852784     -0.54845584782431      1.63304297198130
  O   5.29637953936130     -1.69992127713801     -0.42253478287107
  H   6.01088921569749      2.07777646444482      0.77730032300328
  H   5.84823102834596      2.63877406781405     -0.87910894372054
  H   4.56738069412786      1.66372619039948     -0.16076975809262
  H   5.99681927668479      0.31640577841557     -1.73649419123582
  H   8.40295106949712      0.60493367803802     -1.61529031106088
  H   9.36589731249180      1.17305631075329      0.42732750933863
  H   7.86372837270465     -1.74410174168565     -1.05770766414997
  H   8.38279068263158     -1.38562957015156      0.60056257284886
  H   6.73878653141983      0.15728972161447      2.01059932469097
  H   5.01325253000213     -0.14345550023954      1.80092191298505
  H   6.10622826949157     -1.47781124361276      2.18452237756253
  H   5.30185659278176     -2.53200083346472      0.08566802858047
