44
Coordinates from ORCA-job dimer_006832/dimer_006832
  C   0.83590509650718      1.43801029812357      0.54177429715358
  C   0.19190605892762      0.03384100671902      0.47867928172994
  C   -1.29541565357665      0.10223319139936      0.88432905354932
  C   0.50688362486293     -0.67674571578996     -0.88416064564596
  C   1.63827552561318     -1.49180176439091     -0.17587188351526
  C   1.03697249268547     -1.07486237542599      1.20210282492252
  C   2.02441172069718     -0.66647185501818      2.31912662949282
  O   2.74871240020915     -1.82882926958579      2.70587057288761
  H   1.87009182043103      1.40523597953030      0.22120126971261
  H   0.30123902162430      2.11808957454360     -0.11217691035645
  H   0.79791466806645      1.83684785496962      1.54901057153834
  H   -1.83989508931654      0.77304974166669      0.22836134340246
  H   -1.75249101032674     -0.87896207044372      0.82610726209308
  H   -1.39551016606250      0.46549046010377      1.90165349945510
  H   -0.30891854676975     -1.30630485820810     -1.21730738888988
  H   0.80715895639959     -0.03069591462758     -1.69919897642423
  H   1.67736442397749     -2.55445390276063     -0.38122348577454
  H   2.62144198302584     -1.06882969245588     -0.33990063357094
  H   0.38753887837271     -1.85311312511255      1.58415879476109
  H   2.68953408791320      0.11772404352323      1.94617553938557
  H   1.46309719354203     -0.23734536412571      3.15901383259592
  H   3.48628153240695     -1.56428627711978      3.29639585215384
  C   7.02942845950108      1.90187182266041      1.15628978812607
  C   6.28515456974502      0.63233255844452      0.68231867991153
  C   5.26452142577920      0.98108724810371     -0.42124149207745
  C   7.28674876512168     -0.53237327654473      0.36304669840496
  C   6.97923336896506     -1.15604275354770      1.76432095435584
  C   5.72217643408598     -0.23743581935801      1.86027979278526
  C   5.41512633251941      0.45464979227326      3.20788447255775
  O   4.84712911319465     -0.51961297871504      4.08972078539159
  H   7.76588172479424      1.66185669985351      1.91373844454026
  H   7.54454640592756      2.35964586850409      0.31881213844064
  H   6.33686390510287      2.62935619199782      1.56424395110816
  H   5.76087449155492      1.44574073751713     -1.26669344933927
  H   4.75945214836245      0.08742750277886     -0.77006872905730
  H   4.51753620033607      1.67182097234262     -0.04444348698296
  H   6.94236435715021     -1.15858095833130     -0.45111835610055
  H   8.31165739770052     -0.23966834066962      0.17319358088116
  H   6.79420561054044     -2.22321856298926      1.79420893243659
  H   7.73147688175471     -0.90996190172009      2.50395129774097
  H   4.83872741190419     -0.77490682298045      1.53604954734996
  H   6.33379159876069      0.87532404745955      3.63001762728674
  H   4.71822716988541      1.28632167907184      3.04186455658882
  H   4.74050065910147     -0.14120581566555      4.98227874199398
