38
Coordinates from ORCA-job dimer_002928/dimer_002928
  C   0.90692265999013      0.68481689706307     -2.43939986670442
  C   0.95691359796348     -0.67574091979152     -1.69721570585102
  C   0.75906605249495     -0.51359852182276     -0.16966445644813
  C   -0.62842993347018      0.09360715048781      0.21344311470509
  C   -1.04481038922755     -0.71530618729781      1.44073172981393
  C   -0.26930410601839     -1.75173788663999      1.64733450800872
  C   0.84303913322529     -1.86752695675815      0.60683573820003
  H   1.09425452823665      0.54990055402939     -3.49943883591856
  H   -0.06352348895342      1.15376102800230     -2.32184615039515
  H   1.65891820823844      1.35952727750546     -2.04643975773561
  H   0.18757183961546     -1.33364938462536     -2.08665851238633
  H   1.91347247925439     -1.15071690485709     -1.88784484335737
  H   1.53247961375083      0.14432801849404      0.20788095244287
  H   -0.56269195702419      1.15693715760719      0.42072037328460
  H   -1.35086618013127     -0.03273382375660     -0.58836757135080
  H   -1.90637070660256     -0.44456516877765      2.03243253166999
  H   -0.38429121238535     -2.47820991832281      2.43769159093522
  H   0.66597080127308     -2.71351575055492     -0.05216776325784
  H   1.81780843645372     -2.01508326792034      1.06075739111135
  C   5.13526877275482     -0.31434036681361      1.91344430502898
  C   5.56658868859759     -1.12694078914891      0.66428901530841
  C   4.59089692964119     -0.92167495095783     -0.51976110160284
  C   4.53776293167583      0.55066481731414     -1.03587345988041
  C   4.44472378540494      0.39042641535332     -2.55234740744870
  C   4.66214906271236     -0.84219854325248     -2.94184344300403
  C   4.94830550263007     -1.78310175043781     -1.77251940492426
  H   5.81404413088734     -0.48905004677767      2.74166201396292
  H   5.12987830244860      0.74820397225595      1.69761180648699
  H   4.13633234960940     -0.60000563139237      2.22557182425528
  H   6.56560465376752     -0.83295308727080      0.36068024073090
  H   5.60558846906841     -2.18213786277653      0.91520924328978
  H   3.59761041807120     -1.19874859460090     -0.19150228082936
  H   3.69425375876654      1.09416190270029     -0.62353711468658
  H   5.43637502564107      1.09854247824097     -0.76510613572116
  H   4.24444325188542      1.23042693477591     -3.20027558278676
  H   4.67148094932016     -1.18819339644231     -3.96444224526548
  H   5.99425732537935     -2.07876095816149     -1.76579837652785
  H   4.35863248705410     -2.69340014667203     -1.81739316715226
