40
Coordinates from ORCA-job dimer_007976/dimer_007976
  C   2.40064377956566      1.69905387549035      1.00568479791993
  C   1.71074292107714      0.33067493197228      0.78675968820435
  C   1.69850538837596     -0.05828070423500     -0.72299458185723
  C   2.81490789010782     -1.09559564123048     -0.84949411317823
  C   3.26828307921220     -1.56941977345209     -2.22087713166081
  C   3.24266950612011     -1.50587627843494      0.31809292042833
  C   2.50760845232731     -0.84001633471800      1.49649760092605
  O   3.33656640115486     -0.44165257828825      2.56884752968785
  H   3.40074387339818      1.68987191718888      0.58944168517561
  H   1.83469275444131      2.48521247264247      0.51814772323421
  H   2.46960378767505      1.92686325625593      2.06411135144122
  H   0.70302701929515      0.38383741547612      1.18014887814920
  H   0.74770657002174     -0.49725846977122     -1.01377953994044
  H   1.86574744138669      0.79737679811283     -1.36798798060263
  H   3.65446091525286     -0.73683429981895     -2.80356072084198
  H   4.04186725137734     -2.32487690556736     -2.13838247119164
  H   2.43091271492715     -1.99378719318897     -2.77026351576609
  H   3.99947691158052     -2.25427526389728      0.48707391333240
  H   1.78838940822843     -1.55096721852467      1.91787168126362
  H   4.13951513464809      0.00045921375035      2.22002637001330
  C   6.00479298815075      0.80768150809081     -1.42392136034122
  C   6.58963522787908     -0.46168942491732     -0.75744246795775
  C   8.09104100118294     -0.64948862229877     -1.13296941310124
  C   8.84684445992800     -0.14834156937765      0.09860430648820
  C   10.35076120314488      0.06446454866719      0.04807670894595
  C   8.05616083345667      0.01221453191105      1.13098280366742
  C   6.59427073586729     -0.34037225120177      0.81736370245832
  O   5.65126344234717      0.58492908235100      1.34482186733865
  H   6.58389359079360      1.68535892612863     -1.15858294426140
  H   6.03265929219516      0.70252705082651     -2.50301125585260
  H   4.97384911789662      0.95985462098053     -1.12240282284381
  H   5.99947035921193     -1.31599380297550     -1.06445429025418
  H   8.32808677507374     -1.69530284743256     -1.31274385954077
  H   8.36175274351514     -0.10005660566482     -2.02818899027402
  H   10.60504252669026      0.79758681112996     -0.71427825288605
  H   10.72737210246171      0.41160029036845      1.00464720648663
  H   10.85654561646371     -0.86434127005144     -0.20755692401440
  H   8.35534569655909      0.32205428362421      2.11953379473450
  H   6.33357427816305     -1.30609357109627      1.26454208710945
  H   5.93683680884458      1.49770109117574      1.16281401936126
