36
Coordinates from ORCA-job dimer_006148/dimer_006148
  C   -0.48089722962306      1.10850848314507      0.62366666356809
  C   0.69386969893255      0.26877024711073      0.06317552963769
  C   1.11409203246423      0.73866869218423     -1.35359195625716
  C   1.88813518739263      0.03218505124725      1.05558263222770
  C   1.51206663445022     -1.47497019382268      0.93718482962525
  O   0.38815661177124     -1.15838781202534      0.08222140010913
  C   2.55176530348114     -2.35899196071798      0.17342280993296
  O   3.66737678086825     -1.98350117890131     -0.09420717228293
  H   -0.77802763991058      0.73928693995193      1.59983203878415
  H   -0.18203644620527      2.14829386496425      0.71669563294330
  H   -1.33371913808847      1.04945673142005     -0.04565608098558
  H   1.45946402787679      1.76737501649637     -1.31550542697224
  H   1.91504578287016      0.11629299222313     -1.73897744983833
  H   0.26882187585671      0.67920033922697     -2.03227458660289
  H   2.87149560770329      0.28621170401582      0.67566843374309
  H   1.75249054535200      0.45997798626390      2.04222254376019
  H   1.21239507219462     -1.97839454484679      1.86379345065721
  H   2.17197530404603     -3.35473632372279     -0.12918835623652
  C   5.38726480811651      0.78989767571999     -1.31616226925958
  C   6.47163078302615      0.15337738459156     -0.41216545763822
  C   6.10329931660860      0.25032664431067      1.09010814340032
  C   6.97761081016573     -1.26032887039642     -0.86930241941671
  C   8.35679547700646     -0.55834094272132     -1.05443868336702
  O   7.79149432398912      0.71949831554677     -0.67862941656074
  C   9.46289582872834     -0.99412217505222     -0.03900936350819
  O   9.37862458707785     -1.98310451744561      0.64795396744794
  H   5.69952566011299      0.76253003429439     -2.35473784374930
  H   4.46008317421879      0.23478305432905     -1.21356954600532
  H   5.21637234905920      1.82279267935957     -1.03049609731504
  H   5.19248749455764     -0.31115182592872      1.27487755115384
  H   6.89821467079455     -0.16373407379056      1.70175030586529
  H   5.94653994078616      1.28594962324584      1.37381214068515
  H   6.96123617612246     -2.03271308152788     -0.10738164019809
  H   6.52382859041060     -1.63367823004571     -1.78000267107610
  H   8.77220741420233     -0.55632759806312     -2.06879373106890
  H   10.32765597158369     -0.30444452463907      0.01806308379756
