38
Coordinates from ORCA-job dimer_001792/dimer_001792
  C   2.24902744300058      1.47849272964609     -0.56336516606156
  C   1.37273984131035      0.20605472937920     -0.71233284721942
  C   2.20430890130288     -1.00448412123686     -1.18919077290567
  O   2.82413465436664     -0.84015121551310     -2.43223727524985
  C   2.91899370208755     -1.86267146818389     -0.13388862114994
  C   1.71607275260605     -2.42383914454352     -0.89455587708642
  C   0.38858542052382     -2.70664944261766     -0.18269556081503
  H   3.06360472355446      1.29837841979770      0.12967439412458
  H   2.66886417834174      1.76404310503924     -1.52136101975692
  H   1.65718990365735      2.30823244644735     -0.19106597065886
  H   0.90562594961205     -0.02425012793255      0.23732355831843
  H   0.57995476539554      0.38905077411671     -1.43212191018094
  H   3.65463181368088     -0.32713674263650     -2.32479136244538
  H   3.89604091875351     -2.24720415399379     -0.37693868311740
  H   2.78742003986426     -1.60521494836652      0.90450565583415
  H   1.95973435804017     -3.13355936934685     -1.67189428188899
  H   0.24509373016764     -2.04860286381900      0.66597471166936
  H   -0.44667498947252     -2.57287923107654     -0.86434310506657
  H   0.36965428137254     -3.72991229095000      0.18107987855345
  C   6.35778698086163      1.54362160734407      0.73269246912278
  C   6.17515175677923      0.04344823276863      0.37376096923073
  C   6.22175330146508     -0.19150816376503     -1.14902271878274
  O   5.22812653857061      0.49056910869325     -1.87607567210007
  C   7.57465172534741     -0.39309421564093     -1.84564862119202
  C   6.58928393708179     -1.55739977433737     -1.72568174398204
  C   6.90191850671353     -2.76534963496841     -0.83583963558783
  H   7.28767966186998      1.92438289159551      0.32258162072483
  H   5.53856788243046      2.14049288885964      0.34632511618959
  H   6.38265725567379      1.67301558434568      1.80997103278936
  H   6.95800120280653     -0.53733033076793      0.84723610104745
  H   5.22330144868816     -0.31542021911098      0.75598464187220
  H   5.40652727553116      1.44876221482706     -1.87660915939585
  H   7.71431190559453      0.05155988154485     -2.81947580447623
  H   8.46113980809227     -0.40977581996176     -1.23097294622950
  H   6.05856806511321     -1.80394404520105     -2.63581584844431
  H   7.49029292602832     -2.48109349959051      0.02864326366798
  H   5.98705469635129     -3.23778798190386     -0.48921609555761
  H   7.46883173683454     -3.50052780894023     -1.40054871379354
