36
Coordinates from ORCA-job dimer_009783/dimer_009783
  C   -0.39486441516420      0.56993312061802      0.66403119778436
  C   0.81913154135077     -0.26590213870619      0.15623803805683
  C   0.42205631381334     -1.69913882874070      0.03435713845263
  N   0.10937683207447     -2.78429528567127     -0.06567125773889
  C   1.36297923602266      0.27247049152672     -1.19078940262565
  C   1.79758558736401      1.74367476756787     -1.14361183302264
  C   2.08602912285800     -0.68300789144965     -2.12274639628867
  N   0.74133967812751     -0.16005850717926     -2.45351003039969
  H   -0.07532422524632      1.58057759254975      0.89375854700872
  H   -1.17135598492295      0.61106004591034     -0.09371785455180
  H   -0.80698863658448      0.12497265266244      1.56491296689269
  H   1.62775745150076     -0.21066002206708      0.89123782666558
  H   2.49768490812024      1.90746971817533     -0.33013343860357
  H   2.27275547429725      2.01340848749758     -2.08063395985798
  H   0.93922289924756      2.39246670617179     -1.00330236241269
  H   2.89631145677447     -0.31215759078788     -2.73859167214939
  H   2.19362976744679     -1.72057006840305     -1.82579791977998
  H   0.00359635478122     -0.85786895102529     -2.33104947687222
  C   5.64716950654295      1.54406710824212     -1.67746848702482
  C   6.09036477676369      0.51485587754303     -0.59294804253948
  C   4.94611092953995      0.23727555305906      0.32417493136872
  N   4.06662427045422      0.02829853506269      1.00752666779881
  C   6.62242743484137     -0.79581387667382     -1.22565497719802
  C   7.80030089854342     -0.59153311706504     -2.18791192226238
  C   6.54321889627065     -2.08123289064475     -0.42200661773608
  N   5.67634235801832     -1.85948539184288     -1.60080693800000
  H   6.50838554093435      1.86533734301942     -2.25351141488470
  H   4.92382067725455      1.09472915427189     -2.35056415095893
  H   5.19775536233280      2.41586021722704     -1.21120769307420
  H   6.88961662803245      0.95354062285379      0.00803865893718
  H   8.60775658026150     -0.05539330445889     -1.69800000799495
  H   8.16968561797547     -1.55803185425545     -2.51555250660380
  H   7.49127275266246     -0.03417153379705     -3.06620134131260
  H   7.32274005168922     -2.82478637189390     -0.54307934786340
  H   6.11086121182653     -2.05030345257684      0.57239122325062
  H   4.70631783119467     -1.65657730771989     -1.34955674645955
