36
Coordinates from ORCA-job dimer_006957/dimer_006957
  C   1.55443522451134      1.00878365788549      1.48939293876208
  C   0.92002950389763     -0.17235849748374      0.69099065593871
  C   0.06292273631288     -1.07561015244223      1.61867606271663
  O   0.11457663854276      0.29827852252158     -0.37953587389200
  C   0.89642812115534      0.42140868731604     -1.56803981308394
  C   1.91852047565330     -0.75468997336087     -1.53039218831579
  C   2.06088099209429     -1.00138542561513     -0.00530029681135
  O   2.87808626603499     -1.67755293635392      0.55692855484703
  H   2.19223694124805      1.61129055468723      0.84916618853102
  H   0.76475222040408      1.63421799953190      1.89326376466837
  H   2.15043297378399      0.62056404388544      2.30839774114632
  H   -0.71538608781602     -0.48398920552145      2.09052494340355
  H   -0.40311993273876     -1.87152757443183      1.04628545991864
  H   0.69211392751017     -1.51404661482942      2.38752374238057
  H   0.22485362626859      0.37007251084679     -2.42950014717106
  H   1.42644671108834      1.38208930236163     -1.59884589291145
  H   1.52209385601081     -1.64799145640704     -2.00836427385694
  H   2.87480898081065     -0.50993809117617     -1.98303281967451
  C   7.35941555417125      0.60843976584696     -1.13895765065857
  C   6.36237223975760     -0.38652877422438     -0.46638735263743
  C   5.84541468789805     -1.43887814201214     -1.48400655649514
  O   6.96265378769445     -1.05445463112573      0.63292646906459
  C   6.71325672694204     -0.34816293846470      1.84755272451069
  C   5.29575840729694      0.28354913338848      1.69610308402843
  C   5.16837135235565      0.42239501932914      0.15703606985288
  O   4.33533391832430      1.02673901461818     -0.46113117134858
  H   7.72943262085748      1.33200072121914     -0.41999015172220
  H   8.20304704070635      0.05803132534641     -1.54326432545878
  H   6.86333276019142      1.13978741981331     -1.94541940137355
  H   6.67927802514369     -2.02576116465534     -1.85647387856035
  H   5.13082163005932     -2.10335140412107     -1.00513272969850
  H   5.36487593606892     -0.93822668131517     -2.31831651378118
  H   6.76787045366442     -1.05916441696109      2.67700304379046
  H   7.46774307838806      0.43059706559692      2.01522998738881
  H   4.52170602056960     -0.39447393338379      2.05320571051178
  H   5.18318258513680      1.23945926969065      2.19897789599072
