44
Coordinates from ORCA-job dimer_009746/dimer_009746
  C   0.28905708068288      1.14827019805614      0.28157686346885
  C   0.56902429328513     -0.01498108273618     -0.70437833235716
  C   2.07797753663315     -0.32107603798620     -0.88799736212318
  C   2.83243791853655      0.90995061435168     -1.45290323871075
  C   2.76072724522830     -0.77662201921981      0.44198396241437
  C   3.72942720389532     -1.86464549663551     -0.01562250004943
  C   3.48280742023464     -2.26487798593398     -1.23920529213158
  C   2.29696687127827     -1.52879698466337     -1.85827131405243
  H   0.74970058891319      0.95694262712398      1.24408275306188
  H   0.67659931338979      2.08527446068589     -0.10033732673372
  H   -0.77871173305637      1.26457749886479      0.43473333786383
  H   0.07733509765717     -0.91250059529071     -0.34570140044062
  H   0.13693218028486      0.22042827007008     -1.67123491986850
  H   2.82514267926172      1.73048849602572     -0.74668908992856
  H   3.86392396776020      0.64975755609160     -1.65721010430583
  H   2.37436620102482      1.24599802411349     -2.37583447689513
  H   3.25956043298950      0.04529142054255      0.94303214320518
  H   2.03455605021412     -1.18695531762145      1.13830173943704
  H   4.49835938172148     -2.25374467418781      0.63431266693405
  H   4.01276246426139     -3.04105404613867     -1.77016237988660
  H   1.42416809056338     -2.17538399061859     -1.88853792880887
  H   2.48907795750596     -1.19885911310145     -2.87327802369723
  C   6.64024338229183      1.92848125922921     -0.80591790268132
  C   6.67517185326128      0.46855221964341     -0.28524936855582
  C   7.34739519622541     -0.52442066189852     -1.26771443474472
  C   6.59016650814080     -0.58283962414184     -2.61889002662465
  C   8.84580826506994     -0.17375069206659     -1.53940764485697
  C   9.51178910964854     -1.54522434587970     -1.63346299582404
  C   8.74340592362844     -2.50081321090689     -1.16980249388874
  C   7.40215809400259     -1.96843739861656     -0.66983742649962
  H   7.63811935037525      2.27621386712381     -1.04758323336425
  H   6.02666075904748      2.01185867437148     -1.69490007445767
  H   6.22564867680501      2.58801863896986     -0.05087886578482
  H   7.21571550595371      0.43951130821124      0.65426202325165
  H   5.66344132079319      0.13623072535795     -0.08067402472966
  H   6.62343140523323      0.37206909905799     -3.12768511544495
  H   7.04689821845178     -1.32572210890232     -3.26256707245742
  H   5.55354781252423     -0.85588034709122     -2.46074765568737
  H   8.96658108148498      0.41449634298985     -2.44190256485334
  H   9.27283961449183      0.39799287163011     -0.72009449153778
  H   10.51303645485254     -1.66826155767007     -2.01756648540270
  H   9.00265037960140     -3.54673112017932     -1.10623490314524
  H   7.38353269772877     -1.94784006422176      0.41628379143980
  H   6.56069077012115     -2.56885206280222     -0.99589233954575
