36
Coordinates from ORCA-job dimer_007479/dimer_007479
  C   0.23659762292805      0.43018021590581     -2.14913044486744
  C   0.45680988025994      0.46902856036238     -0.62253721868437
  C   -0.87961312685760      0.60136711553724      0.14556208639360
  C   -1.81383998879254     -0.60067996819943     -0.15288460324023
  O   -2.96893188172952     -0.48959836244658     -0.48679006676404
  C   1.41928471201646     -0.63528591690422     -0.05349055855303
  O   2.34270574854590      0.37813055646298      0.41591241594214
  C   1.56361663723195      1.47028578405703     -0.13343084884110
  H   1.19074248217680      0.36553578435529     -2.66485208418590
  H   -0.36534243028897     -0.42826234415074     -2.42928504697349
  H   -0.27878489550825      1.32715710838165     -2.47752542426346
  H   -0.68641851131486      0.63154165370225      1.21593810517067
  H   -1.38905850571579      1.51961176540278     -0.13267996452715
  H   -1.33824759678318     -1.59322665177894     -0.03636057329459
  H   1.01883208575756     -1.24629053819499      0.76116181152831
  H   1.86214390786719     -1.28935240778966     -0.81212362616637
  H   2.08531447908688      1.99769478902463     -0.93869418783572
  H   1.24972151551814      2.19093306731248      0.62836845971588
  C   5.14061525514149     -1.51083697470799      0.75588221461191
  C   6.25822229522489     -0.79561956357254     -0.03152442186841
  C   5.86319134166495     -0.57552892794486     -1.50969427802325
  C   4.60476326634228      0.32451663969742     -1.63227040007843
  O   3.67505468936192      0.08025920580626     -2.36354018102931
  C   6.85807030586416      0.47155754497217      0.67870741469167
  O   8.15000572216390     -0.17503041710782      0.79601825486183
  C   7.69758095304515     -1.39686496172267      0.16055161050606
  H   5.45899195906374     -1.70186466263335      1.77469906638334
  H   4.24381405279951     -0.89607837013265      0.78570450599473
  H   4.89584712181292     -2.45845649066242      0.28761585853078
  H   6.68101855608493     -0.08856423323643     -2.03757853991804
  H   5.66658376867412     -1.52513393552286     -1.99903323584721
  H   4.62426179580180      1.23147193641137     -0.99853420022047
  H   6.89779132310563      1.38083580791787      0.07106248095779
  H   6.41312429269352      0.71100570429454      1.65000231365009
  H   7.75125628828742     -2.26481134540400      0.82555923279601
  H   8.24169982346926     -1.62014053349197     -0.76273446955274
