44
Coordinates from ORCA-job dimer_006927/dimer_006927
  C   0.70903841558864     -1.16261599784391      1.05834597578267
  C   2.08249670808153     -1.45636893425934      1.67391295467976
  C   2.01660868467109     -2.34503857515095      2.92409963139961
  C   3.28520823810545     -1.62828422799862      0.75172807946408
  C   3.17593303442634     -0.39429186342246      1.64171697456152
  C   2.96243033792937      0.99013023480364      1.02346435021903
  C   4.31492957148311      1.56609787384197      0.51022161323824
  O   4.07298631605130      2.86087534383313     -0.04060360333403
  H   0.79639714666640     -0.62452821607425      0.12268110719272
  H   0.18475678440540     -2.09308730931113      0.86420058186434
  H   0.10639250544435     -0.57022648113547      1.74015927582732
  H   1.55793690938858     -3.29977451352716      2.68643176406489
  H   3.01063050821398     -2.53176657311366      3.31561133710626
  H   1.42479926362423     -1.86714472342572      3.69872439426612
  H   4.02360571625665     -2.37769410230125      0.99709770293569
  H   3.12778556850293     -1.49176921795465     -0.30569928947989
  H   3.82323547895151     -0.38105432409844      2.50413179659509
  H   2.27055241812687      0.94192630696971      0.19117722702453
  H   2.54208754730067      1.67134703232358      1.75805535232317
  H   5.03072142522456      1.60638815517463      1.34015244729241
  H   4.72960113650173      0.87962097218420     -0.23721922047994
  H   4.90912717266377      3.22588192486168     -0.38566050833512
  C   8.16944006158606      1.43774423167214      2.63180658583190
  C   8.19993126238615      1.33053461308997      1.10239284836186
  C   8.00695898014810      2.67910095565546      0.39439851493335
  C   9.13938801947095      0.32025988230712      0.45092800763684
  C   7.63180122395687      0.09274631652488      0.41685176348046
  C   7.00118523320365     -1.05440618354291      1.21050738038825
  C   6.95588755056309     -2.35420660586727      0.35585084679030
  O   6.33610223566002     -3.37589282671032      1.13779376948496
  H   8.40699700476459      0.49241112696898      3.10380080161443
  H   8.89434438505008      2.17365486000522      2.96587619974414
  H   7.18703521934240      1.75307201295938      2.97035946777630
  H   8.82325987321244      3.35320146886323      0.63621710459310
  H   7.97712118534068      2.55205305170798     -0.68196699621592
  H   7.08181927309816      3.14604721331448      0.71647594029582
  H   9.64143198275164      0.59966885508413     -0.46166241618683
  H   9.72610875244738     -0.31197441508522      1.09793806874087
  H   7.15289630370284      0.27172255109054     -0.53230051407024
  H   7.56458336098277     -1.25432757741248      2.11414730489468
  H   5.98821823367730     -0.79791903487833      1.50476609200021
  H   6.39461324496695     -2.15941839123820     -0.56644490315429
  H   7.97755134544348     -2.62901152040517      0.06529821931057
  H   6.31961305263505     -4.20865261047913      0.63006149954056
