40
Coordinates from ORCA-job dimer_006917/dimer_006917
  C   1.95495216668033     -0.95306476256846      2.47626514674488
  C   2.37089523282148     -0.58050139439037      1.04851715965459
  C   2.48092565625937     -1.78680220830990      0.10647703311327
  C   1.90223790549870      0.74933428527921      0.46625628970829
  C   3.36912102670248      0.55047823274493      0.83867446933368
  C   3.98971884823908      1.27998054088400      2.03754671074459
  C   4.95291634020737      2.39351948688320      1.54681656883039
  O   6.09443967606076      2.51289427553915      1.92423852589561
  H   1.83350410035284     -0.07538872844089      3.09875731540531
  H   1.01178474953723     -1.49006991425464      2.45931462206512
  H   2.70656830272132     -1.59754442594315      2.92564642345896
  H   1.52602377848615     -2.29771697948518      0.03067326680527
  H   2.78385228589391     -1.47654179923721     -0.88714962433924
  H   3.21579074565068     -2.49000669122618      0.48982634223043
  H   1.64068622032477      0.79159177005237     -0.57938702162552
  H   1.30658819823414      1.39340424145120      1.09319667391846
  H   4.04856448549493      0.41751766471750      0.01350065507948
  H   3.21451350273915      1.73949874568258      2.64581152033105
  H   4.54232590644618      0.58967253684491      2.66736083704412
  H   4.51256013256661      3.08139944818615      0.79911408247379
  C   8.59903924943731      0.73228747526432      0.11591697214745
  C   7.42977017935990     -0.19097822001088     -0.24773610679346
  C   6.57914469389125      0.32359639340201     -1.41684151604854
  C   7.61412342033815     -1.69980025542608     -0.11440829702316
  C   6.71435978235233     -0.95016326247571      0.86235616928640
  C   7.12687319177044     -0.77539076971729      2.32367402699582
  C   6.25523370195337     -1.65341702497054      3.26125430366127
  O   5.27589909681516     -2.25972574719643      2.89971576116129
  H   9.23150155459321      0.28989743755046      0.87544810258103
  H   9.20807763667403      0.92571610347611     -0.76142280393440
  H   8.22668355504312      1.68202258393234      0.49128532844457
  H   7.18442084714009      0.41145793913738     -2.31399538969092
  H   5.75787061628628     -0.35295082267314     -1.62506638437059
  H   6.17245562657715      1.30362935140802     -1.18769218819456
  H   7.15085844469177     -2.34175667602189     -0.84690159865278
  H   8.56152685350150     -2.06341004567691      0.24950804443145
  H   5.65353428610858     -1.09637234015089      0.73795146584594
  H   8.16907328610361     -1.03817055777404      2.48050866749338
  H   7.01265588079376      0.26537463685463      2.63355710254797
  H   6.59084494065089     -1.67427406834064      4.31641576223921
