38
Coordinates from ORCA-job dimer_005329/dimer_005329
  C   1.44211602693280      0.62640250508946      2.45535176839300
  C   1.08781045910266     -0.60364533325569      1.57840706868712
  C   -0.17272512019276     -1.33914386518432      2.12011564974714
  N   0.88447375528001     -0.21325670934932      0.17991462912055
  C   0.25733116226912      0.91967759446295     -0.27191818852887
  C   0.20743243194062      0.87408294935124     -1.62948587157312
  C   0.82315812528203     -0.35299160289331     -2.03272843581497
  C   1.21563757527547     -0.99075674833155     -0.89880751435151
  H   1.75227935902178      0.28776039771706      3.43857635164677
  H   2.25743180057480      1.18626276340564      2.01034720562102
  H   0.58557515274489      1.28032697096030      2.57328294109073
  H   1.93548260442256     -1.28994623543851      1.58975185384042
  H   -0.00419043316865     -1.66460064712044      3.14166066661468
  H   -1.03032127182145     -0.67487779365135      2.10246104378717
  H   -0.39447202217097     -2.20737581434553      1.50782819673916
  H   -0.10021150320216      1.67314052183505      0.40866220452821
  H   -0.21435399174570      1.62078233038627     -2.27640215702213
  H   0.94951539096504     -0.70415950918196     -3.03971566925495
  H   1.70838836100812     -1.93858463964828     -0.76071559407762
  C   3.89510468706060      1.48800433428218     -0.95030663583974
  C   4.53764400858678      0.08592967091981     -1.11855847351331
  C   6.00709917130770      0.19105913370776     -1.62271434654282
  N   4.48916594141838     -0.67473544297952      0.13458152405135
  C   4.71381373417948     -0.18590130383062      1.39495643895162
  C   4.67037913859188     -1.22011432734496      2.27594423887130
  C   4.41802080627196     -2.40756924554866      1.51836520589521
  C   4.32109270328050     -2.03312619952845      0.21540229929729
  H   3.82366850326358      1.96744290458595     -1.92108630264025
  H   2.89577842661417      1.39993751963880     -0.53688099631441
  H   4.49764108073601      2.11586966053546     -0.30439172110634
  H   3.94844373528861     -0.47515838574607     -1.84392990395843
  H   6.03963681461098      0.71537657723991     -2.57241605613696
  H   6.60947427328378      0.73592894048361     -0.90342103318454
  H   6.43422865029482     -0.79819464428022     -1.75284333190072
  H   4.88520261582230      0.86267196429244      1.56800907970032
  H   4.80033022925647     -1.15579155983022      3.34023117230209
  H   4.32387831630348     -3.40558209325835      1.90449187815531
  H   4.14654530130995     -2.62106863814654     -0.67063318527980
