40
Coordinates from ORCA-job dimer_007772/dimer_007772
  C   1.97447442735015      1.00289636703598     -1.07071189320288
  C   1.93344348344677     -0.42807126021774     -0.47068624677891
  C   2.78629691154754     -1.42654626719567     -1.31156968518085
  C   3.04467850240983     -2.69581182393898     -0.50589867224550
  C   2.82087429809907     -2.76100208493075      0.78440718056064
  C   2.31618350283495     -1.55416890963473      1.59374794110139
  C   3.12918027553258     -1.37917713573782      2.91067303712183
  O   2.43530136167770     -0.34646344207263      0.85671736664125
  H   2.99187825436689      1.37852028868040     -1.05057548213859
  H   1.62398513545781      0.99167989693810     -2.09783768731175
  H   1.34700406844517      1.67216045954172     -0.49056765849093
  H   0.89754216438115     -0.78568664685726     -0.45818722766538
  H   2.26450591182774     -1.66734317394485     -2.23342154064072
  H   3.73131437542720     -0.96680730338097     -1.58806451279225
  H   3.42356467675191     -3.55094271475516     -1.04924117933622
  H   2.99081076963261     -3.66969086032717      1.34360611278174
  H   1.26311697253398     -1.72922634111499      1.85708738677223
  H   4.18081965537932     -1.22615584733685      2.68887556908204
  H   2.75981990357721     -0.51602224175204      3.45561243484833
  H   3.02534407276255     -2.26105210473647      3.53455548764047
  C   5.86448299586160      1.54900765744586      1.35884559836101
  C   5.78672863305628      0.19769702680038      0.60040943119217
  C   6.28682986715567      0.33072724673974     -0.86931226054309
  C   6.47994136152170     -1.05909260362824     -1.46901845712769
  C   6.55871415768887     -2.13001883434575     -0.71724238637153
  C   6.50158409399730     -2.06750475186622      0.81807496914093
  C   7.67771146126184     -2.87201688460327      1.44700362455958
  O   6.59603580076085     -0.73754005390106      1.30386834856612
  H   6.89188351167356      1.89447288552044      1.40377791431903
  H   5.26270774244410      2.29631431993931      0.85176599550137
  H   5.49049873901687      1.42899234201753      2.37063526597177
  H   4.74218163668508     -0.13531056200579      0.58421609611543
  H   5.56726628799172      0.89741249590537     -1.45247059998116
  H   7.22394355988263      0.88165905199081     -0.89197787259078
  H   6.54576977398796     -1.12855119994042     -2.54609265661632
  H   6.67823638251481     -3.11509708738366     -1.14452072423945
  H   5.55477140000859     -2.52179736734373      1.14039237655816
  H   8.62595859943451     -2.46022726514778      1.11743794279309
  H   7.62734800141216     -2.80808091162914      2.52947914541338
  H   7.62341527020042     -3.91452635882626      1.15086151821186
