42
Coordinates from ORCA-job dimer_003012/dimer_003012
  C   0.24533737879243      0.01016330304054      0.37443604685243
  C   1.10827038908109     -0.93369347984243     -0.50307095078931
  C   2.27960622954045     -0.20108206841380     -1.21482877557815
  C   3.27683942033726      0.42159986294959     -0.20285674172774
  C   3.00796804068442     -1.17946405070532     -2.14462446367161
  C   2.45521208960421     -1.43184860029991     -3.54061429147899
  C   3.75248823782517     -0.64538306326455     -3.36109321797613
  H   0.81650266701943      0.39821785043231      1.20970186738489
  H   -0.11591056570845      0.84994846672889     -0.20932224521786
  H   -0.61313400336319     -0.52077180719893      0.77254683724577
  H   1.51049207125228     -1.73488028961610      0.10763390300921
  H   0.48242570955944     -1.39445800855852     -1.26015822669434
  H   1.86510422041545      0.59548897836319     -1.82286600270596
  H   4.11244642845737      0.86927194330154     -0.72819367630952
  H   2.79907946691513      1.18951886503745      0.39383988778567
  H   3.66376355598512     -0.33853623271997      0.46587060143429
  H   3.44682059228697     -2.02511232944537     -1.63891302547506
  H   2.51579200042972     -2.42904618057484     -3.94873102350269
  H   1.57101490679522     -0.88989544043519     -3.83818995792542
  H   3.72902211771951      0.41854362173691     -3.53856601474776
  H   4.67910043577038     -1.11560759026825     -3.65214066021793
  C   7.23719946708166      1.66288157709137     -0.62543032593317
  C   7.37175930665942      0.18174580463106     -0.18474556198978
  C   6.96235856534505     -0.82475054895501     -1.29547303615635
  C   7.80758869396107     -0.65237142782150     -2.58443312964797
  C   7.09763406744998     -2.25855634989992     -0.76885857824785
  C   5.96253829618049     -2.86853855258800      0.04179991061656
  C   6.24214291232975     -3.36145545917346     -1.37700836815865
  H   7.95653585849198      1.90639612684670     -1.39855350322239
  H   6.24386661416327      1.85888147971745     -1.01341585116884
  H   7.41015289636564      2.32657262914221      0.21531769826581
  H   8.39505765743783     -0.01617595844915      0.11542349632724
  H   6.74514554851184      0.00454592498298      0.68311435423374
  H   5.92076261731876     -0.65356375970833     -1.54193929312106
  H   7.54475484282210     -1.41699677760477     -3.30697200703576
  H   7.63669055616209      0.31724362774575     -3.03671240232402
  H   8.86426817891797     -0.74533607251243     -2.36040737505434
  H   8.10046314047162     -2.53030182955580     -0.47803360872218
  H   6.20606391715646     -3.52106710976575      0.86600409625036
  H   5.08243085478691     -2.26696800479599      0.20444041297309
  H   5.54762372050747     -3.08810859286040     -2.15547852949966
  H   6.67340108447731     -4.34292197071393     -1.49992102107804
