38
Coordinates from ORCA-job dimer_001890/dimer_001890
  C   1.09063834369470      0.96028769660457      1.38180807923678
  C   1.16691252127538      0.32656825682017     -0.03859801394315
  C   2.58987207521181      0.45227253916013     -0.68629315201801
  C   2.82191394511630     -0.95004861277594     -1.30185109063805
  C   1.97320377318462     -1.86175451573984     -0.36309622416517
  C   2.77855577145237     -2.32355799399175      0.89074906679175
  O   0.85342646737814     -1.06621915802911      0.00966352409195
  H   1.81242481912691      0.49520334260223      2.04399253115653
  H   1.30140609603311      2.02393641925834      1.32888997483653
  H   0.09820624122582      0.82107814479466      1.79902419551620
  H   0.42436466000968      0.81318805000991     -0.67889903447469
  H   2.62599976625451      1.24307801682126     -1.42605812335111
  H   3.33267785713640      0.66960595260236      0.07157803973183
  H   2.43288512999133     -0.99238072092529     -2.31331868739020
  H   3.86608806263777     -1.23446491201162     -1.32321217928946
  H   1.59917466168320     -2.74311637251981     -0.89089041982750
  H   3.20702346630102     -1.47274279430941      1.40735012312057
  H   2.12235793869106     -2.84830228964722      1.57782424215134
  H   3.58190682071481     -2.99148460839097      0.59814603630019
  C   6.35977074849461      0.70829623134949     -0.77457221961772
  C   6.32955956415603     -0.44980340935789      0.26567872891067
  C   6.73715011891830     -1.83477464117334     -0.34580574615534
  C   7.66476934384024     -2.43764407924865      0.73840330453904
  C   8.27277576767819     -1.15819521516929      1.39120123257946
  C   9.54200251055856     -0.66301169456301      0.63166390436821
  O   7.23243665296954     -0.18728920628122      1.34006294840702
  H   7.35213377158194      0.80832996838930     -1.19991170206096
  H   5.65411186953124      0.51379809959280     -1.57590997691194
  H   6.09333071088484      1.64530735423634     -0.29571222512032
  H   5.32211590702626     -0.51706271435420      0.68596549722773
  H   5.87292965250009     -2.45659056202583     -0.54534193152135
  H   7.27299768744062     -1.69588772588978     -1.27717714887012
  H   7.08724093392944     -2.99242598329360      1.46993477727059
  H   8.42275655103497     -3.09357032732269      0.32749042047111
  H   8.52662122443529     -1.32472029282261      2.44150822757746
  H   9.33648202791959     -0.55193744799578     -0.42660956615752
  H   9.85694138260179      0.29799075017430      1.02571338590091
  H   10.35365470937882     -1.37296190957692      0.75339108732669
