36
Coordinates from ORCA-job dimer_009859/dimer_009859
  C   5.12221787521018      0.82200106290186      1.86050706604279
  C   4.35098172146587     -0.36087664946074      1.39398174910121
  C   3.76231853366122     -1.30339228952069      1.02441592141098
  C   3.01862650192001     -2.49222401903764      0.52829807155289
  C   2.72104072076198     -2.36456533782521     -0.98658712894633
  O   1.94589302565665     -1.25065180948485     -1.33505519026236
  C   3.77466117335270     -2.87172213687255     -1.97941476758693
  C   2.46410816407856     -3.63962505393858     -1.78085693364717
  H   6.03618950714674      0.93206965570693      1.27453625015072
  H   4.53132796562383      1.73246734561562      1.75969118285914
  H   5.39779543168152      0.70624176568912      2.90955346232905
  H   3.59988596518489     -3.39558174530953      0.71109825908063
  H   2.07705378900104     -2.58859464861530      1.07210569330629
  H   2.41174518809324     -0.44118238028947     -1.04852257188728
  H   3.89134759605195     -2.32702512742103     -2.90397781086597
  H   4.69145273028678     -3.28586691219275     -1.58857588386346
  H   2.48579801714378     -4.58301930332110     -1.25598009995650
  H   1.72820658088108     -3.58380563978576     -2.57057918256043
  C   5.26276297119665      0.55059373225630     -1.91707983035192
  C   6.26009157632955     -0.41610319077237     -1.38705460682095
  C   7.05302318523468     -1.17235949497977     -0.97552759677487
  C   8.05417507038775     -2.13666125349096     -0.44648075003504
  C   7.40434343156587     -3.16307603034500      0.51632566432901
  O   6.83008715171916     -2.61251544779750      1.66490753541127
  C   6.78158142310098     -4.42963968395949     -0.08957097129478
  C   8.09433658866980     -4.51121748376364      0.69494856391919
  H   4.54446316588748      0.04587350893390     -2.56290461561406
  H   4.71972132981378      1.02648136306888     -1.10150354883106
  H   5.75800768733342      1.32829560729165     -2.49919605903778
  H   8.52916773197066     -2.66437477410198     -1.27272519363014
  H   8.83482133452776     -1.59565836493704      0.09101299805664
  H   6.06821611086486     -2.05226748860601      1.41631681306685
  H   5.89760288026375     -4.82763290104051      0.38503229578751
  H   6.81132032447747     -4.55763931349597     -1.16092007898711
  H   9.01133217406333     -4.69594730445896      0.15583329311704
  H   8.05867785039062     -4.95033195863967      1.68189029743299
