40
Coordinates from ORCA-job dimer_007530/dimer_007530
  C   1.58330900302722      2.26915303505042      1.12062486313747
  C   1.68315725565760      0.83708063658866      0.58438507103234
  C   2.68990241589175      0.48038743657629     -0.50541383004420
  C   2.87423703146524     -0.05793560726316      0.91020215833096
  C   4.02370552454909      0.47812801878579      1.76993100675378
  C   2.58849025148274     -1.55073648318537      1.13343479160162
  C   3.79136398904447     -2.39574461074829      0.63748543921786
  O   4.39732486567274     -3.18764559495767      1.31893495568353
  H   2.53398523968889      2.78427028500566      1.05191133848040
  H   0.85354813533699      2.83267492983019      0.54610400784517
  H   1.26929351321480      2.26721995005044      2.16077841139220
  H   0.73162650199508      0.33086818123083      0.52658499856368
  H   2.38701892200193     -0.20276089329956     -1.28306795314303
  H   3.36096560026284      1.25481200228272     -0.84121711876334
  H   4.26447295315127      1.50243693555718      1.51450453208357
  H   3.75818809200145      0.43951675733194      2.82232275275576
  H   4.91533124014133     -0.12293858537214      1.62413462501010
  H   2.41365449663590     -1.75866777999581      2.18551005295619
  H   1.70468367231164     -1.84764044414834      0.57423119184270
  H   4.07323052367469     -2.19881011691554     -0.41477700575810
  C   6.86605888791903     -0.40243407135723     -0.85782460281537
  C   7.22141244844328     -1.39574170938651      0.25343653399869
  C   8.67245975390364     -1.64677343554694      0.64978719757813
  C   7.72957878139284     -0.93849262385818      1.61775945416139
  C   7.94930038226924      0.55228589447492      1.90022848848829
  C   7.25160189959046     -1.73345629169363      2.84203214630593
  C   8.36387412691701     -1.77287323721041      3.92390622303089
  O   8.20361168056620     -1.45083226064226      5.07687958848035
  H   7.58629521318802      0.40498538563976     -0.91316894022599
  H   6.85543531972283     -0.90755395157042     -1.81950334393200
  H   5.88313229012918      0.02808506579022     -0.68938359422359
  H   6.58291717975108     -2.26562635103779      0.27882111626592
  H   8.97538417736167     -2.65834879497073      0.86960152883320
  H   9.43595459002810     -1.05552813044582      0.17005803159288
  H   8.34786651551293      1.06470462576416      1.03357123196412
  H   7.01526802643007      1.02826165373917      2.18192213958126
  H   8.65163975736069      0.68123067968258      2.71835555583554
  H   6.35684989251822     -1.28961939771182      3.26877924147957
  H   7.01281984931058     -2.75501686313934      2.55213522982294
  H   9.34581519447648     -2.11923273492392      3.54793567579903
