38
Coordinates from ORCA-job dimer_003071/dimer_003071
  C   3.46797040733364     -0.42344502826430      1.89704503426328
  C   2.49010145518734     -1.08318349258491      0.88424181199015
  O   3.05784120651978     -0.96804946387965     -0.41465891672724
  C   2.26905335312627     -1.54665143446673     -1.44782614752450
  C   2.98721298287106     -1.31720783545100     -2.78505380847065
  C   4.14024603778882     -2.23709370885899     -3.16514464748191
  C   2.81240175889078     -2.33181471248781     -3.91177282541707
  H   4.42756631969884     -0.93017840390068      1.87304101480162
  H   3.62180620581161      0.61993840429873      1.63984794352992
  H   3.06586111667047     -0.48125441938524      2.90408195102416
  H   2.33050681179759     -2.13608593409180      1.14983748941806
  H   1.51235150936217     -0.58666160502632      0.92958805236307
  H   2.13508347986900     -2.62288356422581     -1.28317975819745
  H   1.26879522771408     -1.09456646975948     -1.47583888168195
  H   3.07494963484207     -0.27899632922484     -3.06686360435672
  H   4.99367746854979     -1.80451967002446     -3.66757050876815
  H   4.39298921173102     -3.03092070530399     -2.47936740625668
  H   2.18493353458501     -3.19081019614554     -3.72993547663348
  H   2.76582928150086     -1.96267383090667     -4.92511724224564
  C   5.72563541794544      1.60462511353478     -3.00245142079049
  C   5.78948453336937      0.80743640158709     -1.66959643996891
  O   6.58613466254829     -0.35309476803576     -1.88452852929932
  C   6.56264949850071     -1.25764744251069     -0.78719090158525
  C   7.37025238287480     -2.50692308250892     -1.16902651030155
  C   8.88730822268642     -2.47788774613304     -1.02644085753056
  C   8.04681855822456     -3.31604184159109     -0.06623054454932
  H   6.72511561560069      1.88440293711969     -3.32001382077878
  H   5.27644416279076      0.99453260400212     -3.77909354569157
  H   5.13262241063759      2.50526680187319     -2.87709549505831
  H   6.22366163541092      1.43420330454167     -0.88056813641697
  H   4.77799135474148      0.52872790822604     -1.34509928459357
  H   7.00182161619669     -0.80163737045997      0.10838539647162
  H   5.52876408232051     -1.53634717024391     -0.54003773672394
  H   6.96765451203869     -3.05375125103435     -2.00818308834252
  H   9.48052380832442     -2.99166626333387     -1.76753159846427
  H   9.34010432700654     -1.57264568368534     -0.65167845104002
  H   7.94209658891790     -2.97281002212566      0.95137862565342
  H   8.07686058601339     -4.39038208353231     -0.16457908561838
