44
Coordinates from ORCA-job dimer_006219/dimer_006219
  C   0.12272602123739     -0.97384112195378      1.07422455287917
  C   1.16136135639403     -1.09554037449047     -0.07909519750610
  C   1.62172231433095      0.29662764568336     -0.62806940059522
  C   3.15361323222159      0.12491075551087     -0.80865010196023
  C   3.47003447824593     -0.53329725455092     -2.17444111470568
  C   3.93743599039472      1.44742658253854     -0.65223972279876
  C   3.45709436802522     -0.88666749241347      0.33809525249951
  O   2.33942316407797     -1.76609395565576      0.37872178603721
  H   0.54072886447201     -0.40149073588838      1.89520479184164
  H   -0.77412534343437     -0.47408548020258      0.72201657022394
  H   -0.14681723934264     -1.95923828927716      1.44085726130269
  H   0.72440552732096     -1.69292863262811     -0.88487227111211
  H   1.12178449259613      0.55522468481897     -1.55258773068725
  H   1.41368694781280      1.07236680541869      0.09809184503813
  H   3.15887112182137      0.11179607132639     -2.98794527258425
  H   4.53686453743523     -0.70559220833231     -2.26028302641947
  H   2.95647053396728     -1.48342938194516     -2.26914176624696
  H   3.72386469143374      1.90872859690192      0.30496233030998
  H   5.00540108966228      1.25470979976578     -0.71846015350276
  H   3.66363368674731      2.14360324902979     -1.43692799661845
  H   4.36314711180386     -1.46510362055960      0.14870594069865
  H   3.57826251718326     -0.35681989147772      1.28956588300402
  C   8.43087419842924      0.68617508471091     -2.67134050988744
  C   7.60461848481921     -0.54501075794613     -2.19741199772221
  C   8.50123483671375     -1.79134598816913     -1.88517535469879
  C   7.92917502659620     -2.32252402414290     -0.54333720604089
  C   6.72024793555813     -3.25600052895108     -0.80547798674211
  C   8.99089254122649     -3.03539326003570      0.32459409941325
  C   7.43377508294221     -0.98722145853916      0.09168871639198
  O   6.89722330959638     -0.23877967863557     -0.99132337854124
  H   9.15427568995880      0.96625950092225     -1.91318742066787
  H   8.96122414305006      0.45250901692999     -3.58924752545842
  H   7.77358707677256      1.53091829334528     -2.85239484002741
  H   6.86637453759295     -0.79158006109694     -2.96591875368726
  H   8.45794782107087     -2.53146664618326     -2.67408594746563
  H   9.53351449064734     -1.48855587941083     -1.76134849022515
  H   7.03640065526964     -4.14182412398132     -1.34468938879454
  H   6.27064297334235     -3.56904425745505      0.13045112570248
  H   5.96424949358399     -2.74654691273275     -1.39288557703164
  H   9.83494262893134     -2.38163520508573      0.51413368664593
  H   8.56498271109063     -3.33268681598027      1.27714269322404
  H   9.35304039034468     -3.92641289596009     -0.17691735847452
  H   6.65659610868048     -1.14068994307844      0.84335404776470
  H   8.26948986037310     -0.45893768914251      0.56485271722538
