38
Coordinates from ORCA-job dimer_005107/dimer_005107
  C   1.12278136919183     -2.35576344506534      0.06831410743071
  N   0.27036699471317     -1.17605023392336      0.14347334936726
  C   -0.21473879944331     -0.49709245013148     -0.94908797109291
  C   0.11375997789301     -0.92914014169783     -2.36238827779417
  C   -0.98850788619587      0.52356073283189     -0.50055745340873
  C   -0.98668015182765      0.46377065455014      0.92948689608338
  C   -0.21108433575466     -0.58919021838203      1.29136639731781
  C   0.12457314672844     -1.10951603994754      2.67344538095528
  H   1.57103215811102     -2.54771795283329      1.04104116300288
  H   0.54841044915101     -3.23648472762923     -0.23178580823841
  H   1.92756620266398     -2.19340229994169     -0.65187488803080
  H   -0.26483578343866     -1.92872120500458     -2.56498291640347
  H   -0.34390676470901     -0.24237493707994     -3.06636950024520
  H   1.18820229471746     -0.93284987774158     -2.53280694552651
  H   -1.51123698582951      1.23447999189859     -1.11113560027892
  H   -1.50391314036399      1.12394984006286      1.59906480376500
  H   -0.19538856673560     -2.14164156617563      2.79929966758220
  H   1.19186772151208     -1.06180872908335      2.87390792789689
  H   -0.38582517144707     -0.50406345860044      3.41557972019990
  C   2.55802766151864      1.45754793346697      0.95941674210337
  N   3.21043768175441      0.55095852281141      0.02320691022880
  C   3.12747110225023      0.65664846687713     -1.34495514525709
  C   2.32395163076126      1.75457131502306     -2.00895719486750
  C   3.87556767670927     -0.33591382086411     -1.88977361533185
  C   4.45087197843228     -1.07825296130522     -0.80974009380225
  C   4.02794426053932     -0.50782627972271      0.34655282664864
  C   4.34319639915672     -0.88559383420842      1.77887682438211
  H   3.06279684732039      2.42718259821791      0.98238674354947
  H   1.51414048094486      1.60647861287942      0.67464463228482
  H   2.57974790809789      1.03050078899766      1.95994670098828
  H   2.71607940031156      2.73651063233071     -1.75289324976647
  H   2.37368862102904      1.63836637435547     -3.08632595286285
  H   1.27973204213159      1.71746828413588     -1.70596806408589
  H   4.01485421463354     -0.51818333603821     -2.93806294361473
  H   5.10114919711720     -1.92810331836978     -0.89096275967687
  H   4.82328423946078     -0.06671629255000      2.31041806317951
  H   3.44843055015448     -1.16428395366167      2.32960363313363
  H   5.01998547473944     -1.73399500248160      1.78247251318470
