44
Coordinates from ORCA-job dimer_006899/dimer_006899
  C   3.69314972046132      0.84780298367768     -1.31889677759666
  O   2.36529915350270      0.33116617164684     -1.30011617763204
  C   2.29122694663213     -1.03337988206537     -1.58668481360157
  C   2.51694734079676     -2.05021184511894     -0.45698680032639
  C   2.90841076391452     -1.56839955681810      0.94178031921255
  C   1.10978420132953     -1.81025937080908     -1.01012510494417
  C   0.08622702838507     -1.05270598527393     -0.15938370885115
  C   0.50047653390395     -2.91429361727019     -1.88536552737885
  H   4.34456218376804      0.34007302839437     -0.59485919157308
  H   4.14694574523978      0.75621651247082     -2.31311120883682
  H   3.63631599681154      1.90926807522464     -1.06094204992125
  H   2.62996781918667     -1.31297023223435     -2.58237259938293
  H   2.97840498391114     -2.98078619549970     -0.74843070347604
  H   2.55143221883406     -0.56058987872833      1.11743005942066
  H   2.48737282306523     -2.22029910403341      1.70116525337939
  H   3.99017070210844     -1.56446334671785      1.04806823754045
  H   0.53141224618171     -0.18037338240033      0.30403006689176
  H   -0.73622166981655     -0.71854771881618     -0.78366514860328
  H   -0.31331238906673     -1.69941962668019      0.61560267454124
  H   0.00956750117603     -3.65794328916718     -1.26503273646530
  H   -0.23701934841402     -2.49689809150423     -2.56405271208503
  H   1.26468293488603     -3.41098639765444     -2.47261243236820
  C   6.64152041895107      0.06362168711623      1.93877324268655
  O   6.23181403118081     -0.43609599809093      0.67098597778623
  C   7.14179238538606     -0.18603764724328     -0.35901174519180
  C   8.28249675832546     -1.18606968276890     -0.60519336696822
  C   8.45925420971501     -2.38934968148181      0.32472603502164
  C   7.09632410080917     -1.11307333177456     -1.57027397605886
  C   6.07005355265787     -2.24964213681500     -1.58309393275467
  C   7.34608395494377     -0.48233119718799     -2.94710684703212
  H   7.59431564289655     -0.37339954394649      2.26207205254220
  H   6.74935165259186      1.15579923573157      1.92811507649410
  H   5.86721328017635     -0.20268822830660      2.66537594616714
  H   7.35007295717700      0.86624423819327     -0.54302800710370
  H   9.20745958100274     -0.76718656577028     -0.97042538858534
  H   7.53169432157780     -2.62509609387003      0.83400073273270
  H   8.77395655017600     -3.26363531117439     -0.23775241482568
  H   9.21527334929561     -2.18052003979333      1.07548395991289
  H   5.80855434910899     -2.55653634077734     -0.57778690173149
  H   5.16248654365598     -1.92218360070151     -2.07907059396569
  H   6.46512517248573     -3.10582962146003     -2.12112788215060
  H   7.72588331579790     -1.22861634256754     -3.63842098378920
  H   6.42298799016992     -0.08100444873146     -3.35381988481500
  H   8.07032006211992      0.32207553779813     -2.88194487131422
