44
Coordinates from ORCA-job dimer_009762/dimer_009762
  C   1.76371554358526      1.36319975553018      1.03198024837710
  C   1.26850569428715      0.02150779461205      0.44652309579402
  C   -0.25695966802665     -0.13240658886502      0.71288053529437
  O   -0.94208429085725      0.92759678636819      0.05044877856935
  C   1.54929830665180     -0.09974984125018     -1.07194458343749
  C   1.51858638381780     -1.62526507192213     -1.37103301163774
  C   1.83718004137658     -2.33844557929230     -0.01450529421942
  C   2.01490319091414     -1.20421868691335      1.03582159321749
  H   2.82262546984970      1.49133958162346      0.83896988952294
  H   1.22475868661394      2.18877439760095      0.57894767617917
  H   1.60415702443888      1.39652814129141      2.10391724645991
  H   -0.59237239068303     -1.11009449613447      0.35126353631626
  H   -0.43018847055362     -0.10691857443387      1.79477826182080
  H   -1.89898794208577      0.85360864037083      0.22104149889945
  H   0.82422901697094      0.45569059941183     -1.65509917544993
  H   2.53016479563765      0.30441194482696     -1.28894600169456
  H   0.54155333230697     -1.92191561774821     -1.73311563888754
  H   2.23549635101397     -1.88971427316667     -2.13880851364708
  H   1.02512913705800     -2.99784388535521      0.26734421022381
  H   2.72982178698849     -2.94834128287985     -0.08401131025056
  H   3.06387201339073     -0.96077565725874      1.14716448453699
  H   1.63988714686466     -1.48211622923699      2.01306902111466
  C   5.60635686190060      1.46030602426840     -1.36326694960077
  C   6.20071950361021      0.27934861303087     -0.56352564181762
  C   5.51218207872954     -1.04568594318253     -1.00132276701584
  O   5.77824882845879     -1.25946672216248     -2.38567074732933
  C   7.73453102897090      0.15590923621576     -0.73889498605546
  C   8.21160348072066     -0.68502803294239      0.47895747398075
  C   7.13254253436602     -0.47520045976351      1.59343676816479
  C   6.05244357055732      0.45545591563136      0.97038607229414
  H   6.09952572558252      2.38605823500786     -1.09042604644631
  H   5.73932165857032      1.29490415106095     -2.42729023872308
  H   4.54626227228181      1.56626107686456     -1.16262185545757
  H   5.89101850999993     -1.87249345999895     -0.39193502516828
  H   4.43751116277062     -0.96549065260068     -0.80942743153884
  H   5.31664911995654     -2.06436838299355     -2.68438920326212
  H   7.99347904811435     -0.29620437837983     -1.68900119776215
  H   8.17647962927197      1.14436473997631     -0.70527823254528
  H   8.28219244867217     -1.73280343148548      0.21288463610434
  H   9.19437817682815     -0.37397595569147      0.81228190337539
  H   6.69881974634641     -1.42363761591306      1.88664852578108
  H   7.56136514780494     -0.03332794538738      2.48489679621510
  H   6.25889190459754      1.48751949182510      1.22713624447840
  H   5.05385640232780      0.22521163944129      1.31928935522665
