36
Coordinates from ORCA-job dimer_003076/dimer_003076
  C   4.94015808107245      2.21369070230055     -1.72895044646534
  O   4.82544964497481      0.94692198023742     -1.09564095884711
  C   4.02725305577818      0.01520151253614     -1.81733606348129
  C   3.97438262921832     -1.31083372414983     -1.00175991711225
  N   3.17097503568645     -2.29514158697543     -1.75185834570982
  C   3.87081303381516     -3.05541885618227     -2.80144494887810
  C   3.44841974323565     -3.71859480542909     -1.49940099184006
  H   5.41737294868073      2.13797867566016     -2.71478308320586
  H   3.96329138321359      2.69740144753035     -1.85897096675585
  H   5.55950205507806      2.85251700409329     -1.09194883208741
  H   3.00775158660076      0.39132474444772     -1.96765322925890
  H   4.45359538794652     -0.18644778691981     -2.80796595878768
  H   4.99391390302273     -1.66045492663856     -0.81922038455591
  H   3.49360259776565     -1.12542291387977     -0.04057620256709
  H   3.30987256882623     -3.24811215876411     -3.70878514825595
  H   4.93187412288979     -2.87918420199370     -2.94419326406653
  H   4.23181762339223     -3.98060240295385     -0.79578465201844
  H   2.58834534985660     -4.37868167518043     -1.48409039600712
  C   8.62933201621793      1.42535923376643      0.26158076084026
  O   8.66401757424135      0.00484507640035      0.27796797905796
  C   7.89825682857474     -0.59394597447044     -0.76039550038349
  C   7.85586975073112     -2.12782206644686     -0.48687284749884
  N   7.11906297625669     -2.79426729947571     -1.57731722483116
  C   7.87612119229977     -3.16139700719739     -2.78437245729976
  C   7.37910335016243     -4.22290386141001     -1.81337476288262
  H   9.04612766267099      1.83618295114663     -0.66714564105018
  H   7.60665288246844      1.80796854051930      0.37719032944326
  H   9.23361307678904      1.78358553036209      1.10080610529006
  H   6.87445882776008     -0.19564531389092     -0.78872201921758
  H   8.35132910348722     -0.41079272502386     -1.74272150778800
  H   8.87675290991753     -2.50205620451731     -0.37575648210756
  H   7.32929956524797     -2.30970645443099      0.45114121550885
  H   7.37039371441559     -3.02205730125014     -3.73343269422566
  H   8.94291609213848     -2.96531354613876     -2.81461453583664
  H   8.11611905208365     -4.73166417941384     -1.20046899171495
  H   6.51892623848284     -4.82964132826731     -2.07598222540317
