44
Coordinates from ORCA-job dimer_006987/dimer_006987
  C   -0.11132739075664      1.63937978774245      0.71867362206266
  C   0.50266100636902      0.29797243071559      0.26542829322878
  C   2.01936378072585      0.39570460997231     -0.09458216099183
  O   2.60188482918597     -0.87209107738339      0.21542959158589
  C   1.61567080032089     -1.75517096868664      0.74443459500074
  C   0.48824928141483     -0.84364473864862      1.32180034011184
  C   0.89606650681631     -0.33599795103634      2.72656561917284
  C   -0.87592041604771     -1.56644194942258      1.38831509874416
  H   0.45352386840172      2.07009298429615      1.53679441512558
  H   -0.11173133322876      2.34943399481077     -0.10219049905081
  H   -1.13663936369431      1.49970265870195      1.04462119540770
  H   -0.03661662070402     -0.05435285383450     -0.60642403405805
  H   2.17050657585453      0.63196797516819     -1.15262620619587
  H   2.51082435940530      1.17584941781483      0.49455076588566
  H   1.21416914149014     -2.40309267763982     -0.04300749475951
  H   2.07265592993356     -2.38951639371476      1.50770161418480
  H   1.84450031638032      0.18730420452438      2.69039700555642
  H   0.14513611222041      0.33413507097133      3.12697461456669
  H   0.99684259009726     -1.17366831527067      3.40723665957814
  H   -0.83078890233020     -2.40354921454208      2.07679189829987
  H   -1.64694076744508     -0.88660154457731      1.73395909769385
  H   -1.16148088889504     -1.94031598860051      0.41142181317626
  C   5.56934086490754      1.72384680249034     -0.79264613794708
  C   5.77291499938437      0.32513294357413     -0.17359463587079
  C   6.89740512527560     -0.51014365347022     -0.86684093280365
  O   7.48035423483455     -1.34027357241890      0.14080472180344
  C   6.81895950544185     -1.13377663235132      1.38667755742237
  C   6.21616829476930      0.30309686524313      1.31615863672043
  C   7.32220993298866      1.34599132512382      1.61011362601541
  C   5.02723690605849      0.48933283520586      2.28473069049441
  H   6.49991286244569      2.27767138702343     -0.82634646051777
  H   5.19272470881647      1.63456086680432     -1.80635670849559
  H   4.85083146460454      2.29535742429568     -0.21552170572512
  H   4.84081666627504     -0.22720363772069     -0.24176714647937
  H   6.49634578971979     -1.12505075404153     -1.67880113640059
  H   7.66827805695010      0.14115950696384     -1.29018277208620
  H   6.01926897671898     -1.86941592442627      1.53015055652485
  H   7.54045103094880     -1.24686617233623      2.19893193317085
  H   8.15824248280456      1.22390892462803      0.93121766262825
  H   6.93824646161669      2.35375118794516      1.51030015435642
  H   7.68756906585684      1.22347822503219      2.62319199286920
  H   5.34955169772767      0.36790084911198      3.31304853376830
  H   4.60763675717729      1.48296337165762      2.17875278185789
  H   4.24926866316197     -0.23654982769513      2.07272519836832
