44
Coordinates from ORCA-job dimer_007008/dimer_007008
  C   -0.24567004925058      0.86068161445769     -0.72242260129702
  C   0.98701399827599      0.05619846470305     -0.26866391690220
  C   2.35353380983176      0.80307779917421     -0.13772153109907
  C   2.64132762778592     -0.04656081645973      1.15503494921659
  O   3.28739227185164      0.54434948656321      2.25812924001837
  C   1.09894065648083     -0.38846300303642      1.23373438364789
  C   0.34944640972822      0.55368753931816      2.20115639917805
  C   0.74784700113279     -1.85955607012361      1.53276628306323
  H   -0.35807084740797      1.76953694264001     -0.14386588658598
  H   -0.14940871511520      1.13653755337306     -1.76793568174341
  H   -1.14956281670022      0.27037290932471     -0.60996767404582
  H   1.10179604105925     -0.81219100800768     -0.90620481628718
  H   3.05579955201330      0.70601644925737     -0.95614937397604
  H   2.22161112584037      1.85442906720467      0.08820957878388
  H   3.20924790638588     -0.94330340880774      0.90246990213584
  H   2.82003839492739      1.35765936979397      2.52060201112632
  H   0.57549260844273      1.59463518577578      2.00462778878132
  H   -0.72141338240572      0.41999297651753      2.09774928933363
  H   0.62021331029505      0.32806233288674      3.22730381547454
  H   1.01471362774451     -2.11359669257095      2.55356989211467
  H   -0.31619339532621     -2.03003426398808      1.40548768465362
  H   1.28259136120051     -2.52495158567384      0.86444797019717
  C   5.87148093970747      1.54881745905887      0.12639489174179
  C   6.21725389537323      0.07158125634130     -0.13719972963267
  C   7.41980905790537     -0.25522726201687     -1.08074201980377
  C   7.80466316284354     -1.43224166682354     -0.10844236575190
  O   9.15920411332929     -1.71110322871439      0.15641491634344
  C   6.90007396432497     -0.76235893022072      1.00467505642408
  C   7.72887663958028      0.10848012211024      1.97385531712515
  C   5.97635028241505     -1.71070128008889      1.79399555262859
  H   6.75413373328666      2.11662663256820      0.39297387015398
  H   5.43644338535069      1.99901608303589     -0.75975326177485
  H   5.15327452892120      1.62412141021591      0.93769605355455
  H   5.33008760263535     -0.44876396520632     -0.47535826227853
  H   7.19308506385057     -0.51838719669984     -2.10632403045637
  H   8.16328558085237      0.53274194405270     -1.07655015439514
  H   7.35215999837916     -2.36721101431268     -0.44399079985288
  H   9.61553053452331     -0.89853301319642      0.43979101103206
  H   8.37902223460971      0.79387902469547      1.44425707113740
  H   7.06671170598709      0.69250113927719      2.60327566697625
  H   8.33744976326549     -0.52098974162796      2.61440862017149
  H   6.55831689572324     -2.34455429484382      2.45469190698821
  H   5.27396075412381     -1.13691886900148      2.39248030127277
  H   5.41438766622091     -2.34644545092470      1.12018068260778
