36
Coordinates from ORCA-job dimer_005608/dimer_005608
  C   -0.06721658465841     -0.76813782652019     -0.03661610150455
  N   1.31805544999569     -0.38365555491609      0.27560257550200
  C   2.20710549941794     -0.23405397663355     -0.81256069727436
  C   2.69644910593942      0.86997030280024     -1.44203714365850
  C   3.60232035480061      0.41327573735728     -2.45366694588554
  C   3.61827923463199     -0.94101537384249     -2.40175588852021
  N   2.77445534364377     -1.34708254189294     -1.39356777661354
  C   2.49257192057137     -2.72370401059679     -1.01273278787174
  H   -0.61196417289112     -0.00121469121458     -0.59579024732864
  H   -0.07189356321296     -1.68099250162043     -0.63076403700367
  H   -0.60530176112002     -0.96791529261997      0.89056625374624
  H   1.37425574733183      0.38233144037828      0.93203081208283
  H   2.45150792417406      1.88898760070255     -1.21259497638128
  H   4.16633251417037      1.02797595482249     -3.13014353973768
  H   4.17335996706220     -1.65782205322825     -2.98610088410440
  H   3.39669759781720     -3.32408033263149     -1.11482023682833
  H   2.16246543820624     -2.74205445507643      0.02731148666610
  H   1.71232509193471     -3.16252663140076     -1.64100457658450
  C   6.11893756185160      1.16107053654773     -0.24023315250514
  N   7.19809299399611      0.18050088116074     -0.42567532577550
  C   6.93095293637962     -0.99411208798913     -1.15790255578201
  C   7.34009633339498     -1.40134163831935     -2.39358602511069
  C   6.85217114993759     -2.73353190853768     -2.58256805800452
  C   6.16239177039626     -3.07336454891192     -1.46575622660281
  N   6.21184681879517     -2.01730429702214     -0.58437520139084
  C   5.61614221296164     -1.97412518946601      0.74425479977359
  H   5.87719249477805      1.71324045526454     -1.15268028938188
  H   5.20980255780531      0.65874179295073      0.08559291296089
  H   6.40996477993893      1.87517958686421      0.53096865526070
  H   8.07967033893121      0.60233988918128     -0.67963706455702
  H   7.92903058810264     -0.82988338690734     -3.08420514189856
  H   7.00364384561767     -3.34973674303245     -3.44964322452695
  H   5.64857828446266     -3.98418121434744     -1.21095868157917
  H   5.59562058041070     -2.97879459427994      1.16784154047880
  H   6.22352142303026     -1.32923050258436      1.38241519434116
  H   4.59535942339442     -1.58222040043830      0.71296184359980
