40
Coordinates from ORCA-job dimer_006220/dimer_006220
  C   1.33796496735128      0.92018760954435     -1.55469800569981
  C   0.70106514683560     -0.31996952569473     -0.85849480613703
  C   1.47208437911823     -1.63364218754341     -1.18156254799278
  C   2.61516119879072     -1.63777569942251     -0.12165161268056
  C   2.95790833612470     -3.07251299917672      0.38148946318326
  O   3.75372798664583     -1.02466946502252     -0.70568468203415
  C   2.00075853489371     -0.73657373962692      1.03384492999014
  O   0.76581419187967     -0.21188169247468      0.56240174431856
  H   2.39993915577781      0.96728547644748     -1.33654633941934
  H   1.20960921304255      0.85095001819454     -2.62969910080825
  H   0.86079749414652      1.82897564696483     -1.20271250539285
  H   -0.35377287861065     -0.39206528714713     -1.13523539304937
  H   0.82579694329328     -2.49244518857421     -1.04401674280384
  H   1.87692806426735     -1.65131157332162     -2.18636887686691
  H   3.31639455413257     -3.67839667992470     -0.44406665721552
  H   3.72961006106739     -3.03196389425019      1.14445775825807
  H   2.07906589410876     -3.54608564292525      0.80503645876513
  H   4.49273359673348     -1.03412152075276     -0.06187427573219
  H   1.81279785822441     -1.31635070931638      1.94167041195754
  H   2.70469076123621      0.06603612714491      1.28252144344575
  C   8.00526128481689      0.20334611926282      1.53802217416959
  C   6.73199105208155      0.08896082323381      0.65075365413763
  C   7.06557339930086      0.15193620297452     -0.86945507870855
  C   7.39011918839294     -1.33244420836204     -1.23550363909763
  C   6.73109156478766     -1.75417615445725     -2.58202551734445
  O   8.80769679716987     -1.46670900082349     -1.28333222188914
  C   6.77835525340929     -2.13532527944541     -0.00647678684304
  O   6.09574992199018     -1.18454974890884      0.80477517357115
  H   8.76745226426804     -0.49253009324984      1.20211442326258
  H   8.40835322917311      1.20895327977650      1.47258904886558
  H   7.76053541251087     -0.00875177235406      2.57413575442514
  H   6.00825238928385      0.85440581237825      0.94236505482624
  H   6.20500246930628      0.49862383960691     -1.43115732876186
  H   7.91323730747377      0.79180732332898     -1.08779681234602
  H   7.11089211269927     -1.13763607722022     -3.39070651042024
  H   6.94456148991447     -2.79435257280381     -2.80700946990366
  H   5.65317321804265     -1.62812502962012     -2.51852959612050
  H   9.04093071657928     -2.35230043695310     -1.61807574001678
  H   6.06549156945696     -2.89966516319735     -0.32532416516506
  H   7.58716175428208     -2.62244865728849      0.55005620127326
