36
Coordinates from ORCA-job dimer_009531/dimer_009531
  C   2.31688229110901      1.85415029614889      1.18554266092016
  O   2.17785221559832      0.69395612934994      0.37500831987879
  C   1.91531986875377     -0.50310949998052      1.06144020179674
  C   0.56973712605681     -0.48288291832580      1.84887308738063
  C   2.06315902589987     -1.77005991533850      0.14035301657001
  C   3.02343767844646     -2.45363522766643      1.16916367136106
  C   3.07949426638968     -1.10644676007427      1.95744768074477
  O   3.72846639191416     -0.69124716189325      2.87031783410850
  H   3.02899587209563      1.70106061203329      2.00607637886803
  H   2.69233893581223      2.65572408655138      0.54205022617615
  H   1.35970469795740      2.17751864375127      1.61175048874330
  H   -0.23962058986087     -0.20900755544696      1.17851171844000
  H   0.36521801127224     -1.46662963545878      2.25813293207460
  H   0.60617799201972      0.22698311606303      2.66846798690299
  H   1.13875450141440     -2.29329750317807     -0.07168097582072
  H   2.56223814723492     -1.52212556547945     -0.78999871255433
  H   2.57138953609723     -3.25935036087868      1.74219649759857
  H   3.97673731648435     -2.78713969005960      0.77104438004791
  C   5.09640447423165      0.45103786318116     -0.95971567796310
  O   5.27098560720853     -0.46688395969554      0.11496625029316
  C   6.39206167152754     -0.24050633867303      0.93345987953580
  C   6.34476360227142      1.11147111280342      1.70547284745220
  C   6.71235688421741     -1.46329308144348      1.87285725294134
  C   8.19718492065866     -1.50414360351248      1.37689666772059
  C   7.81620455064121     -0.46965686348851      0.27071381634948
  O   8.36168584500936     -0.05260686015764     -0.70703198862931
  H   5.99318701068899      0.51652522143541     -1.58962042534058
  H   4.26310187375909      0.08583136478865     -1.56724153482912
  H   4.84104525350098      1.45628852925246     -0.60731446873360
  H   5.44004712066063      1.15039141002267      2.30548314723725
  H   7.20215158613340      1.18762355349825      2.36587865394690
  H   6.36213530229368      1.95461590987501      1.02346326454292
  H   6.56241866402867     -1.27698132470699      2.92986965007529
  H   6.15104062457546     -2.34390206291105      1.58270946183250
  H   8.91806215918802     -1.11015215509559      2.08892424569198
  H   8.55625168570983     -2.46128854929019      1.00958854163913
