42
Coordinates from ORCA-job dimer_003067/dimer_003067
  C   1.73667274074749      3.18598228921629      0.87166350147425
  C   1.23473276200933      1.83989242589466      0.28143052364787
  C   2.01802894607803      1.46032081384638     -0.97913798571340
  C   2.05091246480878      0.01894848811511     -1.46964803246607
  C   3.31002204452433      0.65303430453028     -0.88550839250206
  C   3.29012804857032     -1.08366563671785      1.05896290345642
  C   3.90599530081229      0.21286300560970      0.46881458581704
  H   1.18715120290330      3.44232483629165      1.77158123029540
  H   2.79091080147647      3.12550788122127      1.11797968306796
  H   1.60509366254157      3.98664940401920      0.15170937042516
  H   1.32701585210102      1.05675320635749      1.02417533191113
  H   0.17964618633324      1.92369966290628      0.03663094829049
  H   1.99577186920018      2.22150831295635     -1.74369357129147
  H   3.36214794032314     -1.89801367051531      0.34672407968603
  H   1.53446281677748     -0.72333705913535     -0.88464909688608
  H   2.01780717360459     -0.16495959621412     -2.53224820952841
  H   4.06046542120827      0.92008434458236     -1.61284309841233
  H   2.24540267663211     -0.94819671011744      1.31218680924095
  H   3.81985344353574     -1.37057552177604      1.96174019081375
  H   4.96976859656005      0.05143264244562      0.33013864782924
  H   3.80721115912964      1.01701815378772      1.19096355369558
  C   5.08492734807195     -2.01241034620554     -2.82123176284608
  C   6.31243266001063     -1.45268785512520     -2.05519399205613
  C   6.59655655061920     -2.25773484900947     -0.75967913980050
  C   7.76325435028718     -1.64522695235457      0.05961444414016
  C   8.02239156680676     -2.43998560413039      1.34410922271980
  C   8.87025843379776     -3.70464216889677      1.27787996183393
  C   9.41648538982463     -2.45271162066036      1.96120522952177
  H   4.90143938240192     -1.44419399921631     -3.72701890579078
  H   5.24657149731643     -3.04920754482921     -3.09601147469501
  H   4.19599096649709     -1.95853891072128     -2.20181634092620
  H   7.18870599577517     -1.47947146163120     -2.69461030148496
  H   6.13756505752017     -0.41306335588162     -1.80102637106543
  H   5.70336229078502     -2.28389869183932     -0.14645532281415
  H   6.83701718737887     -3.28455588109596     -1.01277287671087
  H   8.66410814997179     -1.63172394018121     -0.54408473189077
  H   7.53015846304792     -0.61463091786601      0.30951163234243
  H   7.19050641915461     -2.45606773483451      2.03169304390893
  H   8.59506284447635     -4.54478527134750      1.89663709758009
  H   9.28590690324398     -3.98219917993997      0.32173329540565
  H   10.19596633311825     -1.90019358790476      1.45991395179416
  H   9.50425001901339     -2.45579635963246      3.03686668398255
