40
Coordinates from ORCA-job dimer_002336/dimer_002336
  C   2.11942334475603      1.28545569175370      1.02761951379978
  C   1.56304352409078     -0.16262723907426      0.97877810532374
  C   2.68931988310460     -1.19720057003756      0.70913153924492
  C   2.14601518105666     -2.63345811066608      0.67837961260633
  C   3.04794539827694     -3.80664921756703      1.03437410301526
  N   1.92211593582994     -3.42057064670177      1.89867029122405
  C   2.22381707360776     -2.84851751553666      3.22159863114724
  H   2.61597068437558      1.53559427739223      0.09611301715852
  H   1.32126943810126      2.00200930242551      1.19207434089434
  H   2.83947726399751      1.38919370238478      1.83175310158022
  H   1.07288236255785     -0.39785056687663      1.91727818609909
  H   0.81065835430455     -0.24021422677056      0.20058285993074
  H   3.15316388797091     -0.97977723149272     -0.24780624530141
  H   3.46345302719427     -1.10996733141963      1.46180376707312
  H   1.39204814164952     -2.79746245827300     -0.08335995353927
  H   2.95386440354734     -4.74880909528098      0.50711328557270
  H   4.05292354303368     -3.57071286171574      1.36735797086302
  H   3.16375114334717     -2.29177967717446      3.25683757462620
  H   1.40738824714682     -2.19300751414436      3.52416849026321
  H   2.28443732063548     -3.66600775622546      3.94085467193003
  C   6.80203516132871      2.10300794490973     -0.13583479470525
  C   6.05624694527767      0.82089690490758      0.31902744177067
  C   7.03321240429137     -0.23265251579247      0.90935103174475
  C   6.28630966768641     -1.50246193312026      1.34434077676592
  C   6.81834889661605     -2.38104930318438      2.46729888630212
  N   5.58028738519288     -1.60459877311178      2.62836152149143
  C   5.55786276659409     -0.47875101758283      3.57423810377800
  H   7.53934683067170      1.86681951921473     -0.89587554530416
  H   6.10651792468112      2.82660520271001     -0.54869779012584
  H   7.31550641031870      2.56375581754521      0.70139947670155
  H   5.30743214010992      1.07606185729933      1.06064880442407
  H   5.52931569346023      0.38422568964668     -0.52323126252024
  H   7.76829994752143     -0.50441853143287      0.15713868042219
  H   7.57912804086051      0.19474235900267      1.74180593631203
  H   5.76917930128661     -1.99574081645567      0.52841840189728
  H   6.71126582185003     -3.45904764828334      2.41573609283753
  H   7.71430355531629     -2.04701940316312      2.97908527523293
  H   6.49385711916175      0.08018849171167      3.62948367899892
  H   4.75923564135469      0.20903352348031      3.29392585436179
  H   5.33414240783220     -0.86828025630003      4.56869312210146
