36
Coordinates from ORCA-job dimer_007468/dimer_007468
  C   1.33057679138300      1.75542215613695      0.19479985557425
  C   1.18442268243569      0.22096912114372      0.22852744637646
  C   -0.29805713548481     -0.21117362749341      0.08604527847118
  C   -0.85101534605940      0.19231321614391     -1.23330757992168
  C   -1.26926762421421      0.51067708601883     -2.27959449128220
  C   2.17004855719600     -0.56124148994378     -0.70811699190287
  O   2.81798117936521     -1.16539440453440      0.44242642803183
  C   1.95190568705874     -0.49905248700615      1.39424066390538
  H   2.37298715613734      2.04043764404336      0.28738483947056
  H   0.94558848582199      2.14694036012356     -0.74178874443530
  H   0.77403381100794      2.20753347427281      1.00947386529240
  H   -0.37719444715114     -1.29277608676203      0.19138149321709
  H   -0.88977765485844      0.23942494087006      0.88295267506738
  H   -1.65576485215914      0.79895409289131     -3.23394855212942
  H   1.70008653508536     -1.29941044426122     -1.36602738129940
  H   2.85030167628032      0.06056881690413     -1.29892293831504
  H   2.49701343979649      0.16600800561535      2.07163510503335
  H   1.35542587839177     -1.19993141524700      1.98705595989084
  C   5.49919045110666      1.12089387652053      0.21527764016883
  C   6.49951105336366     -0.01501953318108     -0.07416767849514
  C   5.84765214790144     -1.13591584116686     -0.92384552973290
  C   5.44741216568378     -0.63243709736655     -2.26419962667654
  C   5.14039076494365     -0.22388695625351     -3.31776545225668
  C   7.90973350272479      0.44232281209748     -0.58806101220282
  O   8.54371149077374     -0.09769019132008      0.60003756899318
  C   7.29007295637596     -0.54618875472493      1.17412471652043
  H   5.96342529051289      1.89433893195850      0.81717171466428
  H   5.15487271093643      1.56304550622525     -0.71396894107328
  H   4.64051148608695      0.72760729400743      0.74923745718392
  H   6.54921973588730     -1.95974035504403     -1.04707086143208
  H   4.96809681084232     -1.51860817354196     -0.39966418512210
  H   4.86029710786969      0.14511325791584     -4.28045470437042
  H   8.24928548616632     -0.04108771801810     -1.50968119382175
  H   8.04152543549355      1.52471762842204     -0.68270784680446
  H   7.05410985832005     -0.04576071369849      2.11857516301756
  H   7.25518372497785     -1.62964693174750      1.32596984039518
