36
Coordinates from ORCA-job dimer_007744/dimer_007744
  C   1.72214258824860      1.12332598818243      1.48955044115344
  C   1.57561112216655     -0.15462833108785      0.66626819881538
  C   2.00643335909590     -0.24753689322075     -0.56999159854118
  C   1.90087947209494     -1.50271068435187     -1.43073475425980
  C   1.71192062672711     -2.77066863331873     -0.55690434654836
  C   0.59709255600475     -2.50638649454373      0.47976359057981
  O   -0.40784711978035     -3.16784111251466      0.56052660914332
  C   0.89091579565318     -1.30326333143233      1.40533242037410
  H   2.30141387474082      0.92462459358813      2.38869423749216
  H   2.21508782118731      1.90165867285182      0.91859019042548
  H   0.74649682712149      1.48867890872775      1.80108143819401
  H   2.46807596879017      0.60614737015945     -1.04121804502823
  H   1.06504296262847     -1.40646221184714     -2.12184942515154
  H   2.79646430481647     -1.60259727446259     -2.03678872736485
  H   1.45676684677480     -3.63457674999759     -1.16192358211766
  H   2.62941324387471     -2.98147433468849     -0.01429692023207
  H   1.53947292564335     -1.64113487051362      2.21678124179681
  H   -0.03831306887998     -0.96325876160795      1.85549114889769
  C   5.51014460695499      1.43887124503539     -1.30659764847150
  C   5.46840557482423      0.01346206558047     -0.75967767240056
  C   5.60510205200147     -1.03854990404494     -1.53324983055303
  C   5.59093154351102     -2.48753795587398     -1.05445296588925
  C   5.79167777700631     -2.59196930100889      0.48100723854375
  C   4.93007768658198     -1.52460951240481      1.19275993544002
  O   4.08172605234252     -1.78706079134587      2.00804357329453
  C   5.26091681181558     -0.08117257287891      0.75191611147300
  H   6.32724223083362      1.99592809283073     -0.85364439302475
  H   5.64792415124401      1.43815182129396     -2.38218432093650
  H   4.58736748036772      1.96498490998684     -1.07492983276552
  H   5.73714024720992     -0.90183598946777     -2.59665518024596
  H   4.65076494013643     -2.95677783721297     -1.33685719137283
  H   6.37655250649419     -3.04442279673995     -1.55930291458057
  H   5.53311166594756     -3.58108107403925      0.84570272762980
  H   6.83374392598584     -2.39743609350096      0.72218057659304
  H   6.16616547444946      0.24331053547358      1.26649197113436
  H   4.45917516538369      0.58091730839534      1.06429369850349
