38
Coordinates from ORCA-job dimer_002359/dimer_002359
  C   1.92998874256013      1.51455482233372      0.96678893171004
  C   1.38601437432441      0.15277260071017      0.45712016545031
  C   1.86050990894583     -0.10247674322444     -0.99608966562447
  C   1.85674626487736     -0.97017840158931      1.42225190748464
  C   1.57027020215273     -2.45824558138746      1.02232924508767
  C   3.12909001860151     -2.58985056734238      0.94073709189833
  O   3.28617026718757     -1.20768450710965      1.34560548138076
  H   3.01441002776086      1.49114703908388      0.99419442997116
  H   1.61985568668614      2.31962726644036      0.30961834679613
  H   1.56691492500052      1.72693229102688      1.96650936627828
  H   0.29998340788443      0.17160227606326      0.48082528377544
  H   2.94256226669097     -0.16040168185104     -1.02801768988007
  H   1.45233534851825     -1.02342082600738     -1.39417689206207
  H   1.54426065473724      0.71176865748792     -1.63859316803354
  H   1.54679060658674     -0.72237209290640      2.44176612980501
  H   1.10215875691105     -3.05404473555951      1.79797013850449
  H   1.03750260733410     -2.60162689610513      0.09048095555753
  H   3.58152730005547     -3.29253017861771      1.64833483960426
  H   3.53106006236638     -2.78490282212793     -0.05918373005786
  C   5.81315968497246      1.15981794036834     -1.14725807677821
  C   6.01890037901912     -0.24142130278554     -0.51291365925382
  C   7.22607821628427     -0.95832762521501     -1.16980455169881
  C   6.21303355300999     -0.08795259960791      1.01990913672317
  C   6.51772402306914     -1.38189240206626      1.84564308999710
  C   7.90059520218605     -0.70449944266020      2.13539605164067
  O   7.51109971681821      0.46364755597866      1.37124065381391
  H   6.68103909306096      1.78266263551811     -0.95631611415173
  H   5.67688941721455      1.07903170273848     -2.21994776199873
  H   4.94149059368785      1.64788858177946     -0.72550745623939
  H   5.12204027482577     -0.83452208223252     -0.66182319247773
  H   8.13433993168170     -0.39494875321813     -0.98516312850801
  H   7.35602581019414     -1.95907815793118     -0.77642896523234
  H   7.08023438049302     -1.03242331149282     -2.24154707828125
  H   5.39283888087967      0.50676164222620      1.43131304174808
  H   5.88095624640607     -1.51882575056468      2.71233710242459
  H   6.55511290614808     -2.30331843989150      1.27873438056628
  H   8.10239227210192     -0.47492301730968      3.18675242980548
  H   8.77135310776433     -1.21477890495154      1.71049589825459
