36
Coordinates from ORCA-job dimer_006814/dimer_006814
  C   4.21005900075295      1.17881570720890     -0.35824294213204
  C   3.06620288286512      1.50267929532973      0.63263910979157
  C   1.72518638586183      0.87572182280017      0.17816696018347
  O   3.41027176602096      1.12808849986885      1.99614064301931
  C   3.44966925943263      2.49080088353262      2.47296163655873
  C   2.96818172256376      3.01914348888100      1.07335434842518
  C   3.83544248429551      3.99273845717084      0.38451587491973
  C   4.52874510094531      4.76322800787502     -0.16139481922528
  H   5.15345888528542      1.56796292177411      0.00859589029856
  H   4.28514288406933      0.10060223698579     -0.47748819590904
  H   3.99935755792564      1.62787332855788     -1.32345473792405
  H   1.85316173271400     -0.19660935933492      0.04775216967643
  H   0.95067884236923      1.05665375900920      0.91554219404637
  H   1.42006678635039      1.30984532375706     -0.76879275720141
  H   2.76171392609533      2.67701327097376      3.30474376828740
  H   4.45691840737410      2.81600491812695      2.75625539531129
  H   1.94273398568565      3.38091968741721      1.08764683177090
  H   5.16133273907593      5.46666642473806     -0.65961174450262
  C   5.06451584897801     -1.87327214320900      1.82983208772084
  C   3.70956825682462     -2.48950654079538      1.40621569912072
  C   2.58871165734699     -2.15075676858338      2.41961316005380
  O   3.34805146277646     -2.11694172313491      0.04666677473690
  C   3.47792422661438     -3.45988608287518     -0.46862760467824
  C   3.76856739762116     -4.01053552824465      0.97434591767204
  C   5.03725868689815     -4.73415783889268      1.17764526090206
  C   6.04823014571694     -5.30442088854479      1.33596859235152
  H   5.82157889296069     -2.06372749497302      1.07709995384119
  H   4.94440580458238     -0.80028729012963      1.95896453970052
  H   5.38955924329772     -2.30866852464492      2.76923052938750
  H   2.52194980095481     -1.07147671490473      2.53783601714769
  H   1.63430520904695     -2.53268520080071      2.07383365043300
  H   2.81922695489512     -2.59500043825353      3.38283738656612
  H   2.56015497702820     -3.83361589334027     -0.93538258625184
  H   4.31207500852505     -3.57001910578414     -1.17050115211182
  H   2.94228485627968     -4.58898614760507      1.38091306856006
  H   6.97063665096909     -5.82528424795617      1.48114649845335
