36
Coordinates from ORCA-job dimer_004119/dimer_004119
  C   2.77666981142833      0.06283027878001     -2.28732149158818
  C   2.53676220646817     -1.06087747641585     -1.24698268075812
  N   3.51339379659153     -1.09023689937064     -0.12543644951758
  C   2.47115016129425     -1.03068820619914      0.93441183389953
  C   2.63980595953822      0.10999261345252      1.96956842425215
  C   1.44197662400898     -0.80714537734318     -0.19019971175756
  N   0.22682685958982     -0.49248512805454     -0.15963756010394
  O   -0.35360778964793     -0.35651230865580     -1.40068232001753
  H   2.89201813599888      1.01678364989872     -1.78435166043210
  H   3.67711347170666     -0.14246144871061     -2.85791747434559
  H   1.93505906313130      0.12678523383619     -2.97156421711188
  H   2.39973553297357     -2.01792523264216     -1.75807651496250
  H   4.18249380826440     -1.84886232215492     -0.08806072242263
  H   2.31048947603133     -1.97937390883309      1.45419856674653
  H   2.68242961410623      1.07019075647680      1.46830955796648
  H   1.80055934966502      0.11549569873429      2.65882513287271
  H   3.56127644374391     -0.02896159882893      2.52999251761470
  H   -1.28860189864592     -0.10680758200763     -1.22220259657772
  C   6.38820017085935      2.52413144126522      1.06826413402679
  C   5.78917723942337      1.36635757427567      0.23116757356731
  N   6.27224284048314      1.28745207306004     -1.17574126112925
  C   6.69727291657721     -0.13411103509714     -1.06293932208216
  C   8.16913927464914     -0.41376036891448     -1.45858513984678
  C   6.39247605913990     -0.03564297047953      0.44350461756198
  N   6.62419526041206     -0.82913572744245      1.38878506656854
  O   6.20978473185265     -0.37519490723670      2.62358193133912
  H   7.46977520621284      2.52490256080299      0.98658325101427
  H   6.01423585627032      3.47738067116000      0.70750306683437
  H   6.11345552950261      2.41064262883520      2.11309387504725
  H   4.70140817467738      1.34430996456411      0.33113214996702
  H   5.61429722712635      1.52108381309395     -1.90934657696196
  H   6.03303313335467     -0.84042041742769     -1.56666028063952
  H   8.82728783211844      0.28952965852436     -0.95957761834347
  H   8.44927490112162     -1.42280048090560     -1.17056974860296
  H   8.29772698189598     -0.30635326651444     -2.53123009310006
  H   6.49915353107530     -1.06635187152540      3.26090066202279
