40
Coordinates from ORCA-job dimer_009689/dimer_009689
  C   0.86306128526634      1.14772522319532      0.45336232381316
  O   0.69795348581834     -0.23435254099318      0.74064846707135
  C   -0.20465421206752     -0.90311592199859     -0.09678631665572
  C   -1.68656006189212     -0.52811063867952      0.10146531258018
  C   0.28148717972747     -1.28636084667753     -1.49910887502479
  C   0.14432132322218     -2.35813048223720     -0.41870397328771
  C   1.43207445831869     -2.97260011269190      0.16332233343847
  O   2.19342618936473     -3.54933781844821     -0.89196914178734
  H   1.67202672546218      1.52239252120540      1.08789947403183
  H   1.13323072264495      1.31706746241393     -0.59654086748329
  H   -0.04167255475923      1.72729845319174      0.67293663789099
  H   -1.87460782205328      0.50074987929938     -0.18856890334219
  H   -2.31441973019010     -1.17222807197052     -0.50471636896244
  H   -1.96514401401283     -0.65214869885994      1.14413543597222
  H   -0.42543789115436     -1.27414438486896     -2.31391963598432
  H   1.28723984872186     -1.01071673308141     -1.77615321548528
  H   -0.68777651494477     -3.03853738717677     -0.51396264191018
  H   1.98560192953688     -2.18253308060485      0.68179494291917
  H   1.15526409457408     -3.71921385217644      0.91875126861882
  H   3.09090603925649     -3.75834543882472     -0.55265498616377
  C   6.85736515802561      0.66769168458496     -1.36442537267701
  O   6.66212520817196     -0.30475722652835     -0.34582700427528
  C   5.40814626226569     -0.26226232887092      0.27434099303616
  C   5.16311324506185      0.94689077225035      1.19815631872929
  C   4.21653511796372     -0.86492669703830     -0.47860699610883
  C   4.84480852150990     -1.61893803011758      0.69368451774538
  C   5.66781348347354     -2.88085884007444      0.40367003664171
  O   4.76366481327405     -3.97927893345009      0.23654502873207
  H   7.82071526525836      0.45652964370373     -1.83922691916872
  H   6.07097955366748      0.62094925902131     -2.12826770454681
  H   6.88731291295203      1.68730848146678     -0.96148103635203
  H   5.12469418065741      1.87099923722989      0.62995976760704
  H   4.21912410418271      0.82638351464654      1.71934850762321
  H   5.96043724356681      1.02230907871771      1.93229634596207
  H   3.24216713829974     -0.42230433892869     -0.33884217345592
  H   4.39042069757445     -1.26219335229316     -1.46730876416323
  H   4.28850353050448     -1.65174647493617      1.61855390056379
  H   6.27378293381956     -2.71595642789223     -0.49625556440707
  H   6.35749029758180     -3.06490250609007      1.23810378223577
  H   5.26594618334866     -4.80094964741722      0.08162643902928
