38
Coordinates from ORCA-job dimer_001341/dimer_001341
  C   0.88456179720731     -0.81480635057783     -2.62734889906039
  O   1.38107552596363     -1.06948447419429     -1.31852947602068
  C   0.66209332440579     -0.43198559777259     -0.30259587878739
  C   -0.68139135938696     -1.01993173568964      0.15250875245524
  C   0.55446560026452     -1.13684839894763      1.04674141302732
  C   1.20249601450232     -2.51757914762389      1.19142078511242
  C   0.62617242238490     -0.27023714157845      2.31014713034369
  H   1.50680910434357     -1.37394390105345     -3.33320157609767
  H   -0.15637571859489     -1.14403401111515     -2.73786314915560
  H   0.93659760039022      0.25125605267037     -2.88332984156234
  H   0.75194869080892      0.65259770788408     -0.28911899019497
  H   -1.47145991069439     -0.34293799234766      0.43691196078985
  H   -1.01903769760402     -1.91683513958371     -0.34239764060724
  H   1.21418681776731     -3.03866677762675      0.24052339683422
  H   2.22521868874347     -2.41015018347429      1.53932902562508
  H   0.65259684957225     -3.11290803642375      1.91377668571839
  H   0.08856243732316     -0.74858168755756      3.12308282330180
  H   1.66347437412400     -0.14391529845552      2.60989528307652
  H   0.18932982760815      0.70714831753743      2.13946006063386
  C   3.90804622087408      1.28948202721270      1.33981411500959
  O   4.03167788298957     -0.10581318069734      1.58484104352041
  C   4.25612109890635     -0.85827755482009      0.42617411166184
  C   5.68322744977706     -0.94990499274792     -0.13368480486839
  C   5.05065688732408     -2.15141168440862      0.57202929997544
  C   5.57197521769065     -2.51820201954881      1.96544586538197
  C   4.62107123859388     -3.34631108021023     -0.28874482760783
  H   3.74068943428846      1.78365605948582      2.30174875509851
  H   4.81632212251305      1.70442500176952      0.88477299079232
  H   3.06063095154798      1.51262731576309      0.67966851533512
  H   3.43601264653753     -0.85925272178092     -0.29292363285560
  H   5.81724083229003     -0.98603783697562     -1.20312840373551
  H   6.45745204313332     -0.41806909859751      0.39600889462402
  H   5.81865629182595     -1.62512665200639      2.52935447410113
  H   4.81550850450797     -3.06981518330329      2.51507572590039
  H   6.45827167584065     -3.13996987844038      1.88466626911388
  H   5.47301376858750     -3.98570333314928     -0.49911416147133
  H   3.87151406800669     -3.93550013368332      0.22999634336104
  H   4.19897054763498     -3.01101692293073     -1.23002600376925
