38
Coordinates from ORCA-job dimer_004813/dimer_004813
  C   0.78888953513066      2.23445315206190     -2.01151348216641
  C   0.40522637849891      0.87291193976454     -2.65922013811411
  C   1.26648264119821     -0.26364186099534     -2.14083607572771
  C   1.99661574762942     -1.13771152307399     -2.87861172359995
  N   2.62802731984720     -2.01477017526186     -2.03091260314965
  C   3.57361809187009     -3.05046225297160     -2.43666649114746
  C   2.30281500986377     -1.68513169331948     -0.74099286195884
  C   1.46427383745090     -0.61743727931132     -0.76691269151289
  H   0.65940917651004      2.18849326051447     -0.93579022718526
  H   1.82571349435169      2.47800320150432     -2.21488439063071
  H   0.16560461994337      3.03444020069295     -2.39782586002688
  H   -0.64213551900852      0.66708458111046     -2.45047575150122
  H   0.50453152057280      0.93888143165856     -3.73766226825987
  H   2.11974092412274     -1.21309477923640     -3.94554486008333
  H   3.19996934236141     -3.56970085615997     -3.32112495173493
  H   4.55403428658737     -2.61757538815988     -2.66072196483593
  H   3.68514527598047     -3.77251241378526     -1.62749650619354
  H   2.70064351644906     -2.24402381530016      0.09081577178810
  H   1.02565812398952     -0.13143286486304      0.08344907800474
  C   7.11766890217683     -0.54588033310543      0.84224263200920
  C   5.79318778515911     -0.98932714965127      0.15765549548579
  C   5.72415979963647     -0.53488949030719     -1.28703709574109
  C   4.77673376779544      0.25962604335906     -1.84243341787976
  N   5.05721785416821      0.41667347116271     -3.17850330004583
  C   4.29763865368179      1.24165635666187     -4.11158882576035
  C   6.20669222110499     -0.27737023179922     -3.46897447107652
  C   6.64429514858470     -0.87631473931962     -2.33274593043320
  H   7.97085572531926     -0.96167016854132      0.31763550832475
  H   7.20601825341843      0.53513021246217      0.82709321346886
  H   7.15092567578135     -0.88099730749367      1.87383028520507
  H   5.71294538572210     -2.07215466359545      0.20837877714429
  H   4.94645079984722     -0.58149808277431      0.70008960121401
  H   3.90270649330530      0.70864449924123     -1.39972658150638
  H   4.67787436143084      2.26748406552756     -4.13659009292284
  H   4.36432548060982      0.82005239237228     -5.11555551646505
  H   3.24965347750321      1.26053730557611     -3.80785552492339
  H   6.61382166900926     -0.28409368421685     -4.46697043456862
  H   7.51593087539518     -1.49512679142741     -2.23393359449235
