48
Coordinates from ORCA-job dimer_006230/dimer_006230
  C   2.31707715229156      1.48361421695818     -1.00233446335761
  C   1.27120747213751      0.43991125031167     -0.60146460548715
  C   1.62054709074289     -1.02134501705762     -0.32574816085462
  C   0.66551568552058     -2.10322692651887     -0.85260041746694
  C   3.08031326470678     -1.48916861375071     -0.38052269490829
  C   1.15867518648182     -0.11461948654852      0.81715896853855
  C   2.16214977376099      0.32033904461136      1.89249283442741
  C   -0.24561281705032     -0.31221151776425      1.40753499271724
  H   3.27103506636233      1.31324432552765     -0.52171237227807
  H   2.47555706127566      1.46217126962313     -2.07650274802008
  H   1.97730540356962      2.47893713413831     -0.73121371165449
  H   0.32629860803998      0.58722007657920     -1.09941118157614
  H   0.99314136056683     -2.43776088495778     -1.83161097682799
  H   0.66029629315537     -2.96126472740858     -0.18766189201924
  H   -0.34851155077717     -1.73818058201765     -0.94721814177164
  H   3.77786499091199     -0.72821243394890     -0.06292605659004
  H   3.21571086464818     -2.35684646049843      0.25720531398641
  H   3.33800212921856     -1.77451526729269     -1.39514588879554
  H   3.14248829565620      0.52246926751133      1.48694203647614
  H   1.80979999050443      1.22237979077646      2.38230412709705
  H   2.26036166184310     -0.45527795576100      2.64546295203523
  H   -0.25524298244363     -1.15653420079759      2.08980470601379
  H   -0.53971468937634      0.57277901542802      1.96249638478387
  H   -0.98734628923299     -0.48553745092687      0.63924015692423
  C   6.01076317555073      0.37146930585202     -2.07805001548150
  C   6.53833157985583     -0.43345113596873     -0.88735895338361
  C   7.90801742025742     -0.17606416703127     -0.26447965407094
  C   8.75970801957730     -1.38946087905809      0.13806417106080
  C   8.78192071492851      0.97388524316907     -0.78134769338661
  C   6.63612535562850      0.13381381484273      0.52837076630071
  C   6.25426852530449      1.59298813412398      0.80900047174660
  C   6.25882948374220     -0.78185544959338      1.70366132535842
  H   6.24300999403932      1.42476415029455     -1.99626115188171
  H   6.44810752397966      0.00243338024270     -3.00117796992207
  H   4.93231027158091      0.27088759211277     -2.15177123149825
  H   6.25482564605193     -1.47274840098369     -0.93256257708859
  H   9.42267089597281     -1.66043778650699     -0.67722238441029
  H   9.36989661953355     -1.15454989441067      1.00460793296077
  H   8.15031025398243     -2.25193453749552      0.37318826439615
  H   8.20164998876881      1.82273446272259     -1.11333944015365
  H   9.45530156150307      1.30926202374099      0.00118472085491
  H   9.38256734586104      0.63132558484024     -1.61785256796058
  H   6.46518038223512      2.24851643305053     -0.02368992760575
  H   5.19450229322574      1.66418839761708      1.02994221789058
  H   6.80066120170823      1.95811049348770      1.67307164140774
  H   6.88896273849974     -0.57365008372858      2.56275509923486
  H   5.22775188976013     -0.61140339613492      1.99444390725011
  H   6.36258002793744     -1.82840897040093      1.44945973098984
