36
Coordinates from ORCA-job dimer_006836/dimer_006836
  C   0.21302803360692      1.69484189417922      0.02981050625556
  C   0.44389511039780      0.17661462771358     -0.20204038308288
  O   -0.76445969877171     -0.54682408298079     -0.26025571942043
  C   1.51291979657144     -0.15058892719715     -1.33050938791749
  O   2.44343958763995     -0.60690952140824     -0.32403105391935
  C   1.48228137971910     -0.52206207779041      0.76150951611699
  C   2.00558816150832      0.25751860040167      2.01535796660979
  O   2.84576774347538     -0.52882420475128      2.84261304904818
  H   1.15797735264800      2.22336914497679      0.09059769525238
  H   -0.35788038944527      2.11578797764105     -0.79305438938299
  H   -0.33832258830991      1.85418011979580      0.95211536102936
  H   -1.41918156718518     -0.06999052306831     -0.80384719263208
  H   1.20235446696712     -0.95209256504578     -2.01135298899049
  H   1.88984220135516      0.70004378948962     -1.90718110819836
  H   1.13119348631014     -1.51593735857229      1.06685071885872
  H   2.49399535518431      1.18055085568458      1.68051140318262
  H   1.13392421056026      0.54635244233018      2.61305159293556
  H   3.63411594835461     -0.82170869844045      2.33133804969751
  C   5.39177053489261      1.16925893819522      0.36099785910185
  C   5.85383197164373     -0.29108654165076      0.62590274854398
  O   4.77238919016936     -1.14432793205239      0.91208117283164
  C   6.91970555125993     -0.83595531132349     -0.41703211870893
  O   7.95208402911449     -0.79787232256587      0.59643986277039
  C   7.02815366931466     -0.47105796322262      1.66510705106875
  C   7.52965819407312      0.74598331479610      2.50349174327799
  O   8.76814086222235      0.43312164529275      3.13442361187912
  H   6.23157283488609      1.79526009318811      0.08113975476422
  H   4.66841360529323      1.18460453055091     -0.44901155303900
  H   4.92650726070929      1.58404516219516      1.24982351417044
  H   4.07527939885393     -1.07412129131688      0.22074002554811
  H   6.70860274365942     -1.85324238153380     -0.76667372122775
  H   7.13618832935913     -0.19029396975535     -1.27360846598726
  H   6.84927458972373     -1.32821014118728      2.32519831317459
  H   7.62007810679927      1.62866017008832      1.86022666284880
  H   6.80246585608207      0.97485968523069      3.29014224344282
  H   9.38161068135656      0.09301682211335      2.45342166009757
