44
Coordinates from ORCA-job dimer_007827/dimer_007827
  C   3.28064059015427      0.93348802959600      0.02941642895368
  C   2.89445546206013     -0.55775089147706      0.19449852241664
  C   3.07340954683572     -1.32215323179538     -1.15417060549305
  O   2.73889755686103     -2.69705199467660     -1.02455775337997
  C   3.55460001607795     -3.37475322467689     -0.07883854693998
  C   3.41063254505666     -2.76055174984899      1.34847588176827
  C   4.32094347986977     -3.50677553652207      2.35580403670767
  C   3.75411846571118     -1.25195289137620      1.27968628629205
  H   4.31635616525684      1.02421439082309     -0.27675444752856
  H   2.65992141804316      1.41225708626743     -0.72050486430219
  H   3.15578541762469      1.46544822337070      0.96632802911534
  H   1.85046410816761     -0.62513470631497      0.48153700900182
  H   2.41221901521119     -0.90020473083320     -1.91508609341556
  H   4.10857478827533     -1.20387762952549     -1.49707630563353
  H   3.23755895422398     -4.42050789466832     -0.07092226512047
  H   4.60924659942618     -3.33948494862492     -0.37814959797488
  H   2.37604052489080     -2.86837618152498      1.65648644282505
  H   5.35983803904793     -3.42689615537820      2.05748576881969
  H   4.21921344532042     -3.08193898434862      3.34853364844615
  H   4.06010652309122     -4.55860244748049      2.40604012912895
  H   4.80232423590447     -1.13813530925161      1.02807793080832
  H   3.59002661571269     -0.78527415119434      2.24390143994980
  C   7.90572674677326      2.02618354749641      0.03970592821781
  C   7.39496656341125      0.61176228833607      0.41067648543193
  C   7.11881019964271     -0.22369899008668     -0.87783155056175
  O   6.66981685116915     -1.53630007643679     -0.57085501080281
  C   7.60255205936763     -2.28232007545653      0.19870955774018
  C   7.91303302958345     -1.59240479328294      1.56329641848562
  C   8.95035593843727     -2.41833242144592      2.36384184788302
  C   8.41183954852557     -0.15014252077961      1.29691953999086
  H   8.83248063898381      1.96139907248433     -0.52008751572821
  H   7.17627451118621      2.55269583268566     -0.56703795772420
  H   8.09043865835319      2.60993585234176      0.93523438030811
  H   6.46253488762552      0.70291674763006      0.95757624518537
  H   6.33675669197960      0.25285194511231     -1.47431571554724
  H   8.02931987762821     -0.25431456189350     -1.48788915791472
  H   7.16428807561713     -3.26915495834976      0.36774080538128
  H   8.53933106864949     -2.42517333379397     -0.35280653309210
  H   6.98920761429365     -1.53784293776563      2.12930043408683
  H   9.88063811861983     -2.49847249240429      1.81192644109726
  H   9.16066826758719     -1.94296878023102      3.31601796305657
  H   8.58003510177150     -3.41995275585203      2.55631986914604
  H   9.37318256019673     -0.18563921196044      0.79696764660728
  H   8.55470195577331      0.37401757611380      2.23508916130753
