29
Coordinates from ORCA-job 002-M-BenZ
  N   -0.61546774870009      0.77646691031653      2.39624824414688
  N   0.00886866736916      3.07965116248988      2.16835440873656
  N   -2.28132082753959      2.43321712885670      1.89613924285158
  N   1.57722159663437      1.44058238707896      2.65576041813571
  N   -2.84728174530344      0.19349965153964      2.12209361692977
  N   -1.63417537997282      4.64064982728257      1.68395921653366
  C   0.26138148333982      1.77433567339459      2.39493991181157
  C   -1.90332290489791      1.14133436227056      2.13935938605481
  C   -1.29355759289440      3.32112652276507      1.92682455295411
  H   2.28652176290182      2.15071722400107      2.64191196378308
  H   1.81446661611740      0.47588189354887      2.80911238296687
  H   -3.78875684500444      0.50171519281589      1.93099220441919
  H   -2.68393416739264     -0.86166859977625      2.30194268509957
  H   -0.92446487556802      5.35022631685930      1.70337803870107
  H   -2.59325926381749      4.87775579568762      1.50363838551523
  H   -4.09534545357840     -8.21397613732027      3.17700394393635
  C   -4.04486186986431     -7.14745908988690      3.02711590430707
  C   -5.20303343906496     -6.42495045070385      2.76407094431336
  H   -6.15265362215493     -6.93375452875523      2.71026425090862
  C   -5.13265197896683     -5.05085215587750      2.57164455176526
  H   -6.01458353648450     -4.45958183294470      2.36513398244502
  C   -3.91366782217958     -4.38998275717251      2.64004735610683
  C   -3.84357139055177     -2.82412151633702      2.41968254716913
  O   -2.67254840466800     -2.33913685955878      2.51864870245954
  O   -4.92181303417829     -2.25894334918187      2.17970201023449
  C   -2.76034903612205     -5.11655352590704      2.90308305640510
  H   -1.82548824962488     -4.57382832009073      2.95039852446853
  C   -2.82122331082387     -6.49119355098329      3.09644922985397
  H   -1.92230882800920     -7.05171681841122      3.30027155098692
