27
Coordinates from ORCA-job 002-BA-BenZ-pipi/002-BA-BenZ-pipi
  O   -2.10156661337217     -1.53399341611390      1.03339108895566
  O   -0.48996614041006      0.05813387641713      1.27503979682637
  C   -1.58691933243092     -0.13217924252733     -0.84131788773551
  C   -0.82438092531937      0.91224368635184     -1.34545547051886
  C   -2.52297029278839     -0.76038539100254     -1.65233644676198
  C   -0.99748321434479      1.32882192393261     -2.66024757159472
  C   -2.69892412756840     -0.34788189673795     -2.96656504796869
  C   -1.93471956100728      0.69873321237700     -3.47078833639109
  C   -1.41239170749103     -0.61616238196137      0.61833549573694
  H   -0.10236869712719      1.38359043859653     -0.69059299123865
  H   -3.10231868075263     -1.57171285392837     -1.23117873993269
  H   -0.40501258083345      2.14109756035270     -3.05274328521003
  H   -3.42631905990166     -0.83704644507769     -3.59625810153787
  H   -2.06923668327359      1.02149133905413     -4.49202976655823
  C   0.39679442009628     -1.45483633411212      6.41029260609531
  C   0.68968409664688     -2.44269524478451      5.25970661023520
  H   -0.10218987173265     -3.19194330992437      5.25851794165611
  H   1.62782506866756     -2.95581588448183      5.44237302417259
  C   0.70788411290031     -1.77323337147916      3.83841826777813
  N   -0.08656326136459     -0.67709675738819      3.63354626903485
  H   -0.32097423533121     -0.25869167256699      2.30720760636579
  C   -0.67235290527172      0.02079786291000      4.64763160915018
  O   -1.41628345787660      0.98026428806789      4.51189607540863
  O   1.38336573224597     -2.29456934988544      2.96728834707497
  N   -0.34932571047924     -0.35547116628084      6.01015824846885
  H   -0.66499764108412      0.28557301138120      6.72376003414526
  O   0.74347126920415     -1.63140248118838      7.56068062534335
