34
Coordinates from ORCA-job 002-M-BA1-b
  H   -3.66103850022650      6.93533048376608     -0.58345210945919
  O   -1.56818526132249      5.97502002962923     -2.30996188104445
  O   -6.12863425143304      7.02156224639173     -2.06295999079376
  C   -4.42694646774458      3.88230716416729     -1.79291230834020
  C   -2.69884545996918      5.66373453588592     -2.01737405018672
  C   -5.22097893231513      6.24410003875101     -1.88276591218537
  N   -3.09626256184684      4.32079477577368     -1.94195343137171
  N   -5.44125112216448      4.86016732839350     -1.81971594891425
  O   -4.69209475659763      2.70822919802578     -1.69618614785712
  C   -3.77140058312179      6.70238150973800     -1.64586994339870
  C   -2.09081380500458      3.26323943467372     -2.09502592597948
  C   -6.81631944679772      4.34887419882475     -1.84739992968801
  H   -3.58336349107583      7.63025774949189     -2.21452362172883
  H   -7.49458316026839      5.20319679025668     -1.86887803996717
  H   -7.01455378208796      3.74358921576446     -0.95957612977971
  H   -6.98199011848250      3.73189529124052     -2.73385673515722
  H   -1.11291030051913      3.73743287762869     -2.19086662398474
  H   -2.29148008781377      2.66343515067773     -2.98605113356474
  H   -2.09707616559432      2.60480531875231     -1.22310919305058
  N   -1.78669778427460     10.76571736558257     -4.35371704280379
  C   -2.07941958514872      9.60752648235566     -3.73593926503073
  N   -1.04139246571265      8.75075261076889     -3.49018108512601
  H   -0.11665021402027      9.01594827533106     -3.78684773760113
  H   -1.19570019933991      7.85376907443582     -3.04561660957617
  N   -3.30663192452542      9.22589226814790     -3.33980725308260
  C   -4.28688267507956     10.10808285118580     -3.60507400709842
  N   -4.12075020624299     11.29471308829980     -4.21572221718337
  N   -5.55588310721692      9.77319277771958     -3.22068174029164
  H   -5.74724568985785      8.88339795474730     -2.77563977521353
  H   -6.30654410815675     10.41376202123066     -3.41961548113439
  C   -2.84982224186296     11.56103104640351     -4.56228854460810
  N   -2.61549021283823     12.75823728958011     -5.18906764376885
  H   -1.67835857811057     13.00049829450354     -5.46588806684672
  H   -3.38196275522660     13.38679526187454     -5.36507447718247
