28
Coordinates from ORCA-job 004-MEL-BA/004-MEL-BA
  N   -5.45021001525214     -7.68370637955745      0.80517077892388
  C   -4.34924172151866     -6.96482972984803      0.42238890266916
  N   -4.51215686439347     -5.64267592748913      0.25506724811238
  N   -3.20572928786617     -7.64758825848541      0.24853830088590
  C   -3.40028139219347     -4.98712552807781     -0.12001120532582
  C   -2.15820554267582     -6.89289172278829     -0.12354607981577
  N   -2.19034183686027     -5.55615464501823     -0.32361641612890
  N   -3.52000359957016     -3.64247454775733     -0.30346007744587
  N   -0.97581116552744     -7.54537980738128     -0.30996057862103
  H   -4.42632689916880     -3.22930785904924     -0.15441876939962
  H   -6.32924270277003     -7.21234981943011      0.94505011170372
  H   -5.37346090586747     -8.67886916294766      0.93994652148366
  H   -2.74108105214207     -3.06953404004499     -0.61663142643328
  H   -0.96077274786852     -8.54053657250652     -0.15592430942859
  H   -0.12574035253236     -7.05671691064711     -0.57278180485665
  H   2.99817358447405     -3.73542415752052     -0.36351325533971
  O   1.35348720591060     -5.97425441514158     -1.00860855373965
  O   3.12959461973525     -1.88958360614589     -2.56590849530053
  C   -0.13593929054935     -2.74316489620435     -1.32301532215906
  C   1.27550504061122     -4.77208983928958     -1.13179129294804
  C   2.28268091543496     -2.52842044625466     -1.99324495621556
  N   0.05851852504548     -4.09604441461029     -1.03375360680246
  N   0.97734198921846     -2.03709814730736     -1.81836595749173
  O   -1.20784115194494     -2.18647884242929     -1.19237130225277
  C   2.54316232669279     -3.90669966880772     -1.34422874625597
  H   -0.79943581290563     -4.65254188776307     -0.76605008782395
  H   0.79006918481305     -1.08832761140820     -2.12481712643752
  H   3.26522895167099     -4.46310115308861     -1.94153248855621
