42
Coordinates from ORCA-job 004-Benz-M-BA/004-Benz-M-BA
  N   -1.42337655139178      0.82901901486672      2.12640632645350
  N   -0.59761209668682      3.01850916005588      1.77879389915353
  N   -2.23264304872465      2.21740546471246      0.27244715095257
  N   0.17641413996987      1.70417293221894      3.54324436331412
  N   -3.02734686500707      0.05133877644727      0.65590634475449
  N   -1.35552411382780      4.34196785877030      0.01808262046015
  C   -0.65174772488314      1.81166921751824      2.46049816268890
  C   -2.24883915308787      1.01337500266053      1.00493611920550
  C   -1.42832327914051      3.14683838033411      0.67856637276663
  H   0.82417375441914      2.44838884290304      3.81793441720649
  H   0.15545823722208      0.83170885838174      4.04287081292399
  H   -3.58019622549681      0.28641259113476     -0.16627979341415
  H   -3.16088847801890     -1.26087719184520      1.31123915425002
  H   -0.74395615490819      5.10381836991092      0.32753045817363
  H   -1.95546471835690      4.46009494657934     -0.77972066817332
  H   -4.89618210322142     -7.84966966980265      3.27569357748392
  C   -4.75372400462140     -6.87060620128894      2.84274165778985
  C   -5.48285008735887     -6.49597881523565      1.71894035530783
  H   -6.19036917843860     -7.18302687916666      1.27991309912492
  C   -5.29723865848201     -5.23666811922913      1.16488339853165
  H   -5.84890267936742     -4.91510138242219      0.29087773249051
  C   -4.38681622946054     -4.35489032779629      1.73129088749917
  C   -4.20095764412853     -2.96547113282914      1.09689089293050
  O   -3.30555074846457     -2.22628929999477      1.73543802895784
  O   -4.84275448218195     -2.64417712132849      0.11146110731894
  C   -3.65881546252034     -4.72720069289729      2.85231528585670
  H   -2.95623500583162     -4.01727760755815      3.27111508163811
  C   -3.84199006031600     -5.98713891165748      3.40960305934451
  H   -3.27687595705512     -6.27966665118167      4.28191940807627
  N   2.88195305087998      5.80718003750310      3.89727135997572
  H   3.58741145865666      5.52205754059923      4.56261174426332
  C   1.90146758566070      4.80790141423795      3.55991660859451
  N   1.02916917365336      5.04060411368357      2.54604784551527
  H   0.04486940335659      3.80903947455463      2.08502749140679
  C   0.97696716940271      6.23229326896639      1.89717460290972
  C   1.78459137318614      7.45964029832556      2.44980385509571
  H   2.12357636276561      8.07944893059292      1.62480363672667
  H   1.10207267459428      8.06422251404061      3.04816854563684
  O   0.27733800487618      6.43001760337536      0.90656399106753
  O   1.95225133999216      3.76567748994816      4.21180105645433
  C   2.98494942274319      7.07973234323294      3.34484577677438
  O   3.91293212160025      7.82289557567886      3.58209224851226
