42
Coordinates from ORCA-job 004-Benz-BA-M
  O   -0.91969309662856     -1.33181142499357      0.24788054130776
  O   2.38742375930182     -0.90814650759062     -2.92684667714700
  O   2.18359455801970      1.98452080165476      0.59506083773627
  N   0.58191443611575      0.38349783241609      0.39198598945748
  N   2.35402458995280      0.63147368660130     -1.23545600610203
  C   0.28356423616289     -0.69364119924589     -1.77702376763882
  C   -0.08607654720306     -0.61297352163979     -0.28018692975781
  C   1.79592029943801     -0.33749143928661     -2.02521607294209
  C   1.74533349824367      1.06867316743609     -0.10212919763917
  H   0.05761768143942     -1.67903776306258     -2.16877937747979
  H   -0.32861052797224      0.03234249350768     -2.31128687728353
  H   0.37263264171218      0.51870856207788      1.39242407407576
  H   3.86326735228740      0.83353253475757     -1.17270108274373
  C   2.83588472257851     -2.17180202648053      1.18432030364437
  H   2.34917795183711     -3.00369382852905      0.69758451223679
  C   2.59601749408062     -1.91415265437034      2.52898785071699
  H   1.91435672273901     -2.54027221487041      3.08575438141063
  C   3.23284949633983     -0.85028923531642      3.15639971622049
  H   3.05364359134617     -0.65187802925219      4.20229446338831
  C   4.09176805584782     -0.03407091304284      2.43191133787217
  H   4.58930520362047      0.80340231358323      2.90124663776713
  C   4.30852543900148     -0.27254789037815      1.08168739687028
  C   5.23544181452383      0.68182033550551      0.29160501241794
  O   4.88392403900474      0.94795314912940     -0.96913751530713
  O   6.23845300814438      1.12416863681192      0.81762471198302
  C   3.69376444951436     -1.35301122357048      0.46177519861423
  H   3.88010694197077     -1.54640605135829     -0.58613411833097
  N   -1.22057466558603     -1.28215795663751      3.11590864722369
  H   -1.15814017995056     -1.30044337391185      2.09623026334393
  H   -1.75613144904945     -1.97747940728663      3.60650220777866
  C   -0.50905617017959     -0.37914987444145      3.85151901803345
  N   0.21445837191053      0.53074697517491      3.18266149391590
  C   0.92909347983792      1.38311825392281      3.94287887129645
  N   1.70283827113435      2.29708965412324      3.30389784679218
  H   2.27631242154638      2.90064594918931      3.86963461348012
  H   1.85192681747245      2.24557606422803      2.28389460655407
  N   0.92324504602119      1.38992009473491      5.29498584828485
  C   0.14341620241168      0.44979900292493      5.84407978246458
  N   0.09196285895411      0.41769527262415      7.22041799910216
  H   0.64287828893743      1.06912124261310      7.75238239678156
  H   -0.45831107065334     -0.28660344489536      7.68050131622747
  N   -0.58870003422625     -0.46968604285627      5.19561974537297
