27
Coordinates from ORCA-job CA-Mel-dimer
  N       -5.415595000     -7.691943000      0.824725000
  C       -4.323509000     -6.966789000      0.430124000
  N       -4.517378000     -5.661996000      0.176691000
  N       -3.157292000     -7.625695000      0.331666000
  C       -3.413484000     -4.998795000     -0.205686000
  C       -2.119585000     -6.866788000     -0.058513000
  N       -2.183497000     -5.545545000     -0.341436000
  N       -3.561242000     -3.671450000     -0.473932000
  N       -0.915301000     -7.493245000     -0.172317000
  H       -4.479453000     -3.271119000     -0.368409000
  H       -6.310232000     -7.237537000      0.912965000
  H       -5.315710000     -8.673826000      1.026153000
  H       -2.782102000     -3.092343000     -0.774412000
  H       -0.877812000     -8.477320000      0.039228000
  H       -0.075506000     -7.000868000     -0.464022000
  O        1.374638000     -5.928938000     -0.950718000
  O        3.268736000     -1.901669000     -2.069386000
  C       -0.161772000     -2.711751000     -1.298223000
  C        1.238205000     -4.740499000     -1.154479000
  C        2.296835000     -2.551130000     -1.769684000
  N        0.014187000     -4.075988000     -1.060234000
  N        1.006360000     -2.006059000     -1.645393000
  O       -1.233825000     -2.148664000     -1.218865000
  N        2.335778000     -3.932545000     -1.508871000
  H       -0.840610000     -4.647402000     -0.787191000
  H        0.905574000     -1.012499000     -1.822261000
  H        3.237287000     -4.391307000     -1.582481000
