51
Coordinates from ORCA-job 006-MEL-FL/006-MEL-FL
  N   -5.98128862182803     -8.53019302552847     -0.85823624822801
  C   -5.37775748991276     -8.74863288658449      0.36154818441506
  N   -4.14361653110530     -9.28756497305113      0.34614723474281
  N   -6.08668769103224     -8.42143491989261      1.44014344251452
  C   -3.63632456678449     -9.48338211521309      1.57563613402515
  C   -5.46773266447651     -8.65980100994061      2.61991873094786
  N   -4.22602191875158     -9.19041835784150      2.73617458144997
  N   -2.36992156773453    -10.04426203836302      1.64370388990543
  N   -6.14750390167752     -8.35643864828344      3.74687891502995
  H   -2.01367064204357    -10.47788774606942      0.80686221267767
  H   -5.49543765753401     -8.75559266356688     -1.70770435515943
  H   -6.90592605996666     -8.13295719574040     -0.87821845946172
  H   -2.09314651365613    -10.43820270413591      2.53046819745053
  H   -7.16662959533646     -8.11600004764348      3.68116376642094
  H   -5.71152408852440     -8.58481942981824      4.62462914274450
  C   -8.79218109765520    -10.57027959075918      3.08731028886024
  C   -9.41581724801729    -10.47119303061275      4.41343738951938
  C   -10.71161437485551     -9.99354337816036      4.60988297250817
  C   -11.25850554548147     -9.90875943689047      5.87092086629416
  H   -12.25866602530255     -9.53069103473433      6.00678659033490
  C   -10.49741433605229    -10.30351989693362      6.98599987031059
  O   -10.99692827806697    -10.23971576309135      8.26427721146469
  H   -11.88013036828938     -9.82605547366852      8.26090921322010
  C   -9.20763593771891    -10.78633946226259      6.81824733819731
  H   -8.61676328329428    -11.09215938959294      7.66773815497334
  H   -11.28298249581231     -9.67880375181280      3.74616127489050
  C   -8.67707920479862    -10.86489859129327      5.52950624859889
  O   -7.41480871852711    -11.35013919316771      5.41435891072474
  C   -6.82557442923152    -11.51738676421053      4.19324742434779
  C   -5.59719293552832    -12.04334084654116      4.15288575267510
  H   -5.08538444712988    -12.30931828807662      5.06241287057099
  C   -4.89217224249801    -12.26741079583248      2.85952852504877
  C   -5.67329651134295    -11.87540320105065      1.63335946695736
  C   -6.88029107570435    -11.33422385759125      1.71206578552274
  H   -7.40794163270463    -11.02356731574626      0.82072021132301
  H   -5.18196561704080    -12.02464696339845      0.68412656230078
  O   -3.76798715911055    -12.73644025449652      2.79017584257964
  C   -9.59689085856284    -10.21488259995189      1.87458362443975
  C   -10.03039620126823    -11.25130461591575      1.05082905404689
  H   -9.77330896898567    -12.26922780589771      1.30022927917982
  C   -10.78429228675593    -10.98114834500315     -0.07891715099962
  H   -11.11695279073489    -11.78885753195674     -0.71149209684538
  C   -11.10568557060134     -9.66319415130409     -0.39200110553419
  H   -11.69037590060093     -9.44569640800425     -1.27297835099096
  C   -10.66851200211502     -8.63797508044012      0.43157647623879
  H   -10.89283786856259     -7.59972200235450      0.22339836948747
  C   -9.91411093797050     -8.89950518132701      1.56965364771337
  C   -9.43145675429494     -7.66929967887819      2.47119691225419
  O   -8.73839164597543     -8.00341005642934      3.47124814347576
  O   -9.83134116057668     -6.56401385154007      2.08219164541613
  C   -7.56968457646682    -11.11862864739926      2.98683741341914
