45
Coordinates from ORCA-job pos8r_job2/pos8r_job2
  H   1.66726219021671     -7.08944294157796    -13.52889474928299
  N   1.24780709419131     -7.86771372447598    -13.03193850968422
  H   1.13318329876828     -8.75792974781474    -13.48594325377202
  C   0.69724841383675     -7.71690964557421    -11.78762314424616
  N   0.82360385572187     -6.51296959866756    -11.19030047324342
  H   0.90361347519970     -4.42723560917157     -9.73410144654778
  N   0.08685557857735     -8.79901718314200    -11.28705747300200
  C   0.27148029929431     -6.40113431949708     -9.96581941037322
  N   0.37831168507614     -5.19483490360986     -9.33020747151415
  C   -0.45481768927652     -8.66586450779265    -10.06976153443255
  C   -0.39480689906668     -7.46919252464945     -9.34841254971437
  H   -0.00844914444262     -5.08788787570822     -8.40899237361261
  N   -1.07884253725867     -9.78003918308872     -9.56292756666457
  H   -1.09964521782085    -10.62012232991141    -10.11696859154113
  H   -0.83014620606313     -7.36853964674048     -8.37512130441889
  H   -1.51629099883813     -9.76894179964046     -8.65809407633355
  N   2.17823671691896     -4.39316681392472    -12.41291860248386
  H   1.66326563502398     -5.20023936478616    -11.96600330126709
  C   2.50742381070384     -4.51917550034885    -13.76746893318690
  O   2.31453935359356     -5.56639143989513    -14.36433579317757
  N   3.02383297930396     -3.39931683640376    -14.42830455376190
  H   3.13347182578577     -3.46980878856143    -15.47706965666662
  C   3.35496715470798     -2.19409668851611    -13.80819744126711
  C   3.38654357020536     -2.21882006737591    -12.26290594318720
  H   4.40756054649579     -2.45947248977798    -11.95141274093861
  H   3.15067193289599     -1.22927282203982    -11.87444916452708
  O   3.64912322232354     -1.19958088427796    -14.43200589285591
  C   2.43943550869984     -3.26602773568078    -11.63432428829461
  O   1.99675315363086     -3.13048426963683    -10.51567655162630
  N   3.80502985880177     -2.45305322367427    -19.28218460075962
  C   3.68682890507754     -3.62231724536697    -19.92349757823271
  N   3.87724150593451     -3.58519962990778    -21.28368747590567
  H   3.80841746870557     -4.41620894670211    -21.84477589971891
  H   4.09093936244038     -2.70413080524992    -21.72093562463976
  C   3.38787177843399     -4.81596950341116    -19.25874912634351
  H   3.29354649454191     -5.74847016481715    -19.77689915876148
  C   3.21229186536699     -4.72948304036938    -17.87056345676186
  N   2.91639585811322     -5.84687357790940    -17.14020607615541
  H   2.80070635438381     -6.72614621360309    -17.61236257237885
  H   2.72303610319415     -5.79023658760899    -16.14537465938345
  N   3.32861504532979     -3.56329191939813    -17.20413499991323
  C   3.62147012606098     -2.48067051967055    -17.95542318360304
  N   3.74479547290834     -1.27578033828601    -17.31689268275560
  H   3.68328855372037     -1.18939612542781    -16.30920438460885
  H   3.98030263558119     -0.47456291230886    -17.87784172945173
