58
Coordinates from ORCA-job pos14_job2/pos14_job2
  N   -5.31116872390870     -7.35924635374449      1.42858295680792
  C   -4.19632668299120     -6.75767625523776      0.89672579054913
  N   -4.37679512691516     -5.53271045624315      0.38665980600620
  C   -2.95193352766876     -7.39577096496636      0.89356371569554
  C   -3.29424047905955     -4.93972726794933     -0.13284700175070
  C   -1.88753963942296     -6.68524746461361      0.32054912660256
  N   -2.04633866772007     -5.45084829376134     -0.19685277827347
  N   -3.49416027538907     -3.68910480710829     -0.65320444835992
  N   -0.63678768871968     -7.23667467591223      0.27396608260813
  H   -4.41832690608609     -3.29863816564870     -0.58121038131590
  H   -6.18692786793985     -6.86335965958541      1.41062615631095
  H   -5.26622007941696     -8.27727738383314      1.83534221434279
  H   -2.72514543966730     -3.12525012532259     -0.99820967542645
  H   -0.49417987091934     -8.16308684748199      0.63593494752717
  H   0.13334578223250     -6.76797402780092     -0.19035500397123
  N   0.28103451894854      4.95429045264544     -2.62748139344367
  N   1.62174316291128      3.05752771171674     -2.57370671483190
  H   1.08518953368008      5.54123230315890     -2.82063815679558
  H   3.75855764269888      1.73959406379207     -2.61076890994797
  C   0.39000463359406      3.59931550996214     -2.49615250443080
  C   1.69625387069083      1.71532474270249     -2.43667329674722
  N   2.93435101889326      1.15793926717070     -2.51079195447188
  H   4.79950981424987      7.82632490245911     -3.64953079580678
  H   -0.62889999933731      5.37908382633992     -2.58519578598485
  C   -0.75186933197344      2.81915489792368     -2.28715475843567
  H   3.05201631408161      0.15443006127950     -2.44101100396769
  O   7.26432836093743      6.88898692549904     -3.39990484730499
  O   2.57953742555412      6.51971008302863     -3.32616541576421
  N   0.65896981730634      0.87445078125847     -2.23531543357405
  C   5.11711823924401      4.03097491017862     -2.98535621926592
  C   -0.56283773983036      1.43828004219825     -2.16113915528008
  C   6.25655442870634      6.22933281820636     -3.45064043627174
  C   3.66605338696581      5.99158798693604     -3.40898632221352
  N   6.24577819220953      4.86346775431273     -3.12302411691445
  N   3.86509621619985      4.64494413643861     -3.09975488276409
  O   5.25460635049855      2.84918227133401     -2.74586704705331
  C   4.89480020669734      6.77815221931491     -3.93114791571560
  H   7.13652512426583      4.42354604320149     -2.91777077116166
  H   3.02074095480154      4.04473296729235     -2.88582702928279
  N   -1.63033213811186      0.61266982082648     -1.95844702460173
  H   -2.54967034813159      1.01111025721120     -1.88012191149050
  H   -1.51116302337572     -0.38497932403713     -1.80929533218420
  H   4.87964534856632      6.73158582855629     -5.02456578204850
  H   3.34119699477119     -4.30170247724866     -2.05511190462159
  O   1.45285242515089     -5.84297631686951     -1.12989220165521
  O   3.22540106407843     -1.72526353572629     -2.43378544289487
  C   -0.11889245715338     -2.67116932305330     -1.61217955172936
  C   1.27534654539184     -4.71489260074009     -1.53161891868544
  C   2.25935587756288     -2.43124921798596     -2.25660710651860
  N   0.07815837853367     -4.02761945295737     -1.33100700022613
  N   0.98753332042787     -1.91141168883399     -2.00634479597620
  O   -1.21892365784453     -2.15778779390141     -1.48165685097782
  C   2.34879198533414     -3.97071345543169     -2.35772362747023
  H   -0.73246046079982     -4.55269099920556     -0.90211980268842
  H   0.85458925937979     -0.86791104484547     -2.08149969919174
  H   2.21642906175269     -4.24731772893206     -3.40816826416904
  H   -2.81363559066572     -8.37588376460564      1.30245132836894
  H   -1.72616953526903      3.25827888663935     -2.22584274816134
