53
Coordinates from ORCA-job 10/10
  C   3.16782523243759     -0.72473688919602      0.30535241222469
  C   3.30020843523843     -1.42642026207184     -1.05933111283719
  C   3.44295763012503     -0.43809979900957     -2.23397512052220
  N   4.15026111957185      0.73895006883257     -1.93707467017972
  N   3.87626620661111      0.48046954557038      0.43208091539212
  C   4.41737459303785      1.22050674063526     -0.63848474286550
  O   3.06477379289030     -0.67522913581865     -3.35369556909427
  O   2.55546546667268     -1.18565676591216      1.23534355526744
  C   3.92130713012321      1.07894997903419      1.77039672727438
  H   4.31739201561289      0.35807353899338      2.48830084997418
  H   4.57233614645160      1.95303992003440      1.73396978764070
  H   2.91879154552919      1.37837616718101      2.09020530960578
  C   4.48530305830015      1.60714142168612     -3.06909198698576
  H   3.58353865434543      2.05311104471568     -3.49688059318250
  H   5.15244517088239      2.39530971438254     -2.71705220316819
  H   4.98482598678987      1.02643503980132     -3.84700203328812
  H   4.19562130499231     -2.05396400676657     -1.03397756216699
  H   2.43999987045544     -2.07227069014070     -1.22605394177611
  O   5.04960251431121      2.23422598743184     -0.45707268115514
  C   0.27586423875241     -0.23089938510030     -1.08845310825153
  N   1.05810404103689      0.84677112311090     -1.29764289785290
  N   -0.36868744022696     -0.51995168332376      0.05291963480504
  C   -0.20628593558531      0.39120070972989      1.02511341449291
  C   1.11877046616581      1.69172623625939     -0.25880954792846
  N   0.50368043567104      1.53224817730901      0.92145145858923
  N   1.87929827028095      2.82215536666469     -0.41732191026018
  N   -0.85023894565570      0.16538389619740      2.21020846426241
  N   0.16527041849795     -1.12742219290038     -2.11516209044437
  H   2.01555346254080      3.45259719835142      0.35505268563437
  H   2.30164819926751      3.02865643685672     -1.30701734783707
  H   -1.32118919301314     -0.71424452818819      2.35172840142826
  H   -0.72869498999355      0.80956035401954      2.97792008498959
  H   -0.47588065572076     -1.89954890478911     -2.02386062439849
  H   0.60621564198911     -0.93173388163461     -3.00195502946506
  C   -1.46672243572012      3.43418401265134      1.76190200462378
  C   -2.46626971981455      2.72089392521168      0.82973232763491
  C   -1.95145939097251      2.58587150732067     -0.61555715158109
  N   -1.13935707432764      3.63904760467109     -1.06462522877002
  N   -0.70214025847845      4.44315459165006      1.15262046265609
  C   -0.53513301744359      4.60790952936283     -0.23827206174241
  O   -1.39317367502019      3.22243860494248      2.94628673484912
  C   0.10712451817808      5.28070301858650      2.04203783684694
  H   0.90495227780332      4.69495544685562      2.50615965139349
  H   0.54081829922081      6.09191709272388      1.45549133586229
  H   -0.51935063356756      5.69735390910171      2.83320353599805
  C   -0.78350165915858      3.63418394946016     -2.48755359338740
  H   -0.15817661555975      2.76790590343460     -2.72330613944395
  H   -1.68776217764978      3.59004906129624     -3.09767694467517
  H   -0.23843188581281      4.55249619253076     -2.70850751131614
  H   -2.70191959968962      1.73647282590873      1.22999693741384
  H   -3.38874024967034      3.30812409630743      0.80909597165749
  O   0.12102983255287      5.51446322444084     -0.69420417604896
  O   -2.25768042325528      1.68120296159738     -1.35048791989216
