34
Coordinates from ORCA-job 6/6
  C   -0.97685854893455     -0.36305034899166     -0.45661966290115
  N   -0.34677867710752      0.82032270125334     -0.56576048883032
  N   -0.38116480173022     -1.54039253969038     -0.19635694109697
  C   0.95173272286160     -1.45990898489387     -0.04425231142676
  C   0.98611109405602      0.76953467278483     -0.39154889580912
  N   1.69433661238678     -0.34277660347572     -0.12756842404928
  N   1.68015902374253      1.94404497770582     -0.49252354580037
  N   1.61754379145595     -2.62904795318742      0.22220740151164
  N   -2.33434289568776     -0.37298177546450     -0.62545367131027
  H   2.67742960191642      1.92916716126719     -0.35583329108284
  H   1.20273631270197      2.82001040027987     -0.66856664784209
  H   1.10161538500125     -3.49053764400067      0.29481940678959
  H   2.61672971518479     -2.61624737724060      0.34502226469362
  H   -2.82508700840327     -1.24767638946299     -0.53850192056894
  H   -2.84625735141868      0.48293398106138     -0.80333312097663
  C   -1.00653764479023      4.57477656621084     -0.90142995709694
  C   -1.78626131599241      3.38087511871474     -1.47473144400386
  C   -3.23733443375378      3.28856060886507     -0.97692577100249
  N   -3.84576073235551      4.49664022009724     -0.60878214990441
  N   -1.76580831953637      5.69558174730548     -0.53761259564241
  C   -3.17275051690841      5.72389287409197     -0.42469904198539
  O   -3.85751024198071      2.25149219276579     -0.94339958766416
  O   0.19851455344207      4.59038085916442     -0.80664826598562
  C   -1.02528118021002      6.90509674849946     -0.15979211323036
  H   -0.47019175620240      6.74445401650536      0.76813347090149
  H   -0.31720390796796      7.17001435276546     -0.94781439973057
  H   -1.73998277829022      7.71763506962358     -0.02047898667765
  C   -5.28094177250380      4.45213128655801     -0.30495680259173
  H   -5.63536606630768      5.47421024663020     -0.16291459158447
  H   -5.82217623407800      3.98720907147993     -1.13163045336933
  H   -5.46649481419907      3.87248188824263      0.60311307174862
  H   -1.80469024700835      3.47676240552948     -2.56347065007007
  H   -1.25614766959057      2.44551149976975     -1.22381989340217
  O   -3.76664889779185      6.73760994923594     -0.14630999000861
