53
Coordinates from ORCA-job 9_03/9_03
  C   -1.14653673453720      3.76032556431067     -1.41328810678192
  C   -1.34982728413384      3.10404982680236     -0.03659275101813
  C   -2.81463602552825      3.02132850529493      0.42624353676335
  N   -3.67407038839530      4.00371666310202     -0.08615766189432
  N   -2.12311033283311      4.69072035870553     -1.79720266352231
  C   -3.35684118323699      4.87960416091137     -1.14362683233915
  O   -3.19878122618821      2.19447648906361      1.21966909644968
  O   -0.18212155893825      3.53166751102520     -2.10470621714908
  C   -1.91332083686577      5.49608426865375     -3.00564437013096
  H   -0.93149623838495      5.24742225096825     -3.41141046347268
  H   -2.68014169417266      5.27872191947697     -3.75311876616745
  H   -1.95318592381889      6.56098984161024     -2.76428878310595
  C   -5.03798316503243      4.11371632102073      0.44342852015096
  H   -5.77412407995649      3.90785097311317     -0.33739216524575
  H   -5.14865821121593      3.38414397338410      1.24710852871677
  H   -5.21451434069857      5.11946354450479      0.83227599901940
  H   -0.92276608123814      2.08653277759578     -0.05602378499876
  H   -0.79419066620693      3.68802642227663      0.70183491951597
  O   -4.13431916814545      5.72905148455132     -1.50678079922291
  C   0.60338644002631     -2.29287863212374     -0.40406812663523
  N   1.14953751380609     -1.38961551934109     -1.22953727216437
  N   -0.40258238346758     -2.07294411470914      0.45816233972695
  C   -0.82410446495997     -0.79502690982467      0.50316424021796
  C   0.62909777725720     -0.15099865566689     -1.11347912371106
  N   -0.33943428937665      0.20579270071214     -0.25040124982517
  N   1.14609249228171      0.81598959346119     -1.92631078966039
  N   -1.83825716036233     -0.50773517257887      1.37169636754508
  N   1.09806846470000     -3.57205608836970     -0.46508914267154
  H   0.75996802941699      1.75341359232839     -1.94403194031389
  H   1.85183416450269      0.55158547330361     -2.59450311705666
  H   -2.21294456585929     -1.25010767874619      1.94326685038072
  H   -2.22678952844611      0.42617389053767      1.43248594914273
  H   0.80090938661199     -4.25511335139540      0.21193060916901
  H   1.87986840811002     -3.77144286845331     -1.06795216670553
  C   -2.18834143941404     -2.29182168755999     -2.00364897171634
  C   -3.26106046377825     -2.43439497443830     -0.90760256714226
  C   -2.88112164218079     -3.46832610435201      0.17080933889913
  N   -2.16482510060403     -4.57947755125132     -0.30292629345751
  N   -1.50461845743368     -3.47323223601059     -2.32745478261105
  C   -1.49711465804785     -4.64605196236024     -1.54427669635342
  O   -1.97845017197723     -1.26523725917737     -2.59967355354614
  C   -0.60967797238270     -3.42074716848777     -3.48846689172522
  H   -1.15875969167522     -3.07602770592055     -4.36674866043410
  H   0.22169911199127     -2.73458306638647     -3.30003247845108
  H   -0.22350858512203     -4.42435076539019     -3.66908550160114
  C   -1.96390349052081     -5.68120706578757      0.64197100986601
  H   -1.48696370448471     -6.50765165584055      0.11342626225296
  H   -1.33359231968846     -5.36368600892870      1.47678909474817
  H   -2.92510772133613     -6.01014440307463      1.04192189802370
  H   -3.44333860589010     -1.46789505345551     -0.44219669788697
  H   -4.19014369671298     -2.76483187247837     -1.38035577677324
  O   -0.92554384994760     -5.64836701365054     -1.90252072666068
  O   -3.24169868550808     -3.39703656095473      1.31887133156398
