36
Coordinates from ORCA-job dimer_004772/dimer_004772
  C   2.17785393801015      0.56282929500560     -0.75499968673286
  C   1.36110052831099     -0.76045814512878     -0.75517942969756
  C   -0.10836171082462     -0.51288750059909     -0.46694197230096
  C   -1.23330735082531     -0.78987938119976     -1.15335672785825
  C   -2.34122014751951     -0.29363821976172     -0.35497795062094
  C   -3.81329523994938     -0.37246647128263     -0.70812127356863
  C   -1.78164735738564      0.24181405980712      0.74574291430439
  O   -0.42663182660879      0.11732833717936      0.69299571943963
  H   3.21919624216858      0.35774792073292     -0.98042264129389
  H   1.78790659261361      1.25116227299742     -1.49752656950505
  H   2.11953008146004      1.03755635223564      0.21944718399876
  H   1.43995994551912     -1.25410417635823     -1.71927771547409
  H   1.76931455207916     -1.43601978510706     -0.00597077450627
  H   -1.30557258047622     -1.28175706856869     -2.10581378909975
  H   -4.12492574971288     -1.40792536235911     -0.82671294052755
  H   -4.41978732419708      0.08138671914277      0.06926056195049
  H   -4.01180067936149      0.14406527091967     -1.64465554688055
  H   -2.20583249528190      0.72698148285055      1.61521306962517
  C   5.60598559767303      2.16479921820574      0.68416638259543
  C   6.55113565887804      1.03395805779658      0.18520662208185
  C   5.80284470362426     -0.27126347536905     -0.01324370759056
  C   5.61995663310863     -1.06754363029770     -1.08388567508590
  C   4.78511101864625     -2.17158342557060     -0.64307798127985
  C   4.29701712689671     -3.32795012947491     -1.49229412031249
  C   4.53931322171766     -1.94121574189830      0.65991233260467
  O   5.14936726191559     -0.79074539494060      1.05727454545726
  H   6.16560439009290      3.08190449637203      0.83944980885870
  H   4.82215872866100      2.35518547305483     -0.04193191199406
  H   5.14131708900707      1.87680989728477      1.62232155609105
  H   7.00831529726077      1.31078442902900     -0.76063932143067
  H   7.35305174225580      0.88444652327834      0.90680008048748
  H   6.00993695899745     -0.92036430399062     -2.07428278597786
  H   5.13560239384040     -3.89694968158969     -1.88794578918569
  H   3.67464250685646     -3.99804722834791     -0.90807576840042
  H   3.71403342413817     -2.96551578400591     -2.33583162772284
  H   3.97019882841066     -2.48647290004195      1.40207892955185
