38
Coordinates from ORCA-job dimer_001338/dimer_001338
  C   1.48331806832111      1.33052183056984     -0.09583683971205
  C   1.30184463490564     -0.17054330344716      0.25815301746433
  C   -0.18134690592544     -0.55313906906852      0.28316675266183
  C   -0.90178340812907     -0.97334709618720     -0.99795421072391
  C   -0.64356814727836     -1.99725552224171      0.12179151395493
  C   0.38057796535138     -3.12834567876554     -0.09867586963952
  O   -1.73280350617639     -2.35088413922466      0.93980330495691
  H   2.53564990662164      1.59162690344817     -0.13746605646448
  H   1.03790659557250      1.54668943700754     -1.06111864470549
  H   1.00259073864724      1.95847070207179      0.64667995826251
  H   1.82597640197725     -0.77650020770850     -0.46984888177418
  H   1.74620839210156     -0.38271558713230      1.22707496828095
  H   -0.77738553310822      0.02365838697150      0.97581941887453
  H   -1.91462925697285     -0.63098804690591     -1.14392544594292
  H   -0.32273309007152     -1.05517863155217     -1.90403604714187
  H   1.15214614953574     -2.82434896182324     -0.79571180637850
  H   0.84975879129187     -3.39232624127020      0.84542235966401
  H   -0.11174374810723     -4.00927446854032     -0.50065428715179
  H   -2.25980282169029     -3.04036802994244      0.49344290412112
  C   6.13656413094973      1.63640106123214     -0.37709783962270
  C   6.32676388317543      0.22185722502332      0.23566594438326
  C   5.04949611452885     -0.60998214197952      0.08217332710864
  C   4.78345286500884     -1.40586298680713     -1.19494682363200
  C   5.05503138749084     -2.13383755463805      0.13347795213791
  C   6.37273301556313     -2.91152055290188      0.31936417127120
  O   3.95130010605556     -2.69037674976454      0.80640661812625
  H   7.04255154356231      2.22545798649663     -0.27792376287302
  H   5.88817537446734      1.55978435869834     -1.43044685984928
  H   5.33025683100192      2.16183001073433      0.12368796346343
  H   7.15733800139330     -0.27346337773232     -0.25328829335536
  H   6.57734842574824      0.30776964911492      1.28949207934359
  H   4.17732218566446     -0.15999782542727      0.53300312300925
  H   3.77765071358529     -1.42094384449096     -1.58383229098815
  H   5.55332354060311     -1.42583182179901     -1.95008094093915
  H   7.17129227787805     -2.46977107752502     -0.26483414645927
  H   6.66265072095512     -2.90921305764588      1.36652708566115
  H   6.25059976551347     -3.94229542740184     -0.00128795377921
  H   3.75465888998804     -3.56904614944514      0.42995053838705
