38
Coordinates from ORCA-job dimer_001862/dimer_001862
  C   0.59483235177498      1.65098473536247      0.10309133230313
  C   0.56654152449147      0.10524738279719      0.02066145682755
  C   1.34837803260418     -0.46105464967233     -1.20893814442448
  C   2.05632534651308     -1.68838029992733     -0.64229547864673
  C   1.98278878559003     -1.76318171236156      0.66453899908765
  C   2.59217860385128     -2.83068734134376      1.55876890038809
  C   1.20640287913628     -0.59010675319776      1.26305163430351
  H   1.61660412717001      2.00578854560764      0.18014444160224
  H   0.14712041436913      2.09092946103110     -0.78191068010525
  H   0.04629936652761      1.99974405812762      0.97181894212146
  H   -0.46512051310112     -0.21869625590344     -0.05565869594157
  H   0.68244648383552     -0.70706093551500     -2.03015264783837
  H   2.06818902271718      0.26050551467981     -1.58679449973204
  H   2.57450959933445     -2.38915621099365     -1.27767618035142
  H   3.13922076130409     -3.56087730413117      0.97196438021512
  H   3.27372468195235     -2.38315303500311      2.27854022029027
  H   1.81663339840723     -3.34815633219719      2.11877505983197
  H   1.88131179839803      0.07937249386774      1.78892274532757
  H   0.45781262881683     -0.91606489464547      1.97769306155057
  C   6.90749330851160      1.37395641515859     -0.01659988888931
  C   7.09740140561613     -0.16290350378143     -0.01993464664859
  C   7.98753917028620     -0.67001447399929     -1.20102601283251
  C   8.86219839917120     -1.73906445286292     -0.55263733707242
  C   8.76260810630737     -1.75844436348870      0.75429190076028
  C   9.50725097773751     -2.66557167767431      1.72008329509187
  C   7.79064369005765     -0.69854963518726      1.27219036977284
  H   7.86678845548772      1.87314478474460      0.06245384157411
  H   6.42626133758213      1.70295486854602     -0.93172764078304
  H   6.29246597317716      1.68219869584130      0.82229839261036
  H   6.12214976956618     -0.62840855304640     -0.10412659773743
  H   7.38797184216000     -1.06226439417920     -2.01661715420026
  H   8.59690739738381      0.13177130818014     -1.60948335047024
  H   9.50265275766937     -2.37953444437954     -1.13794139808421
  H   10.16563922549071     -3.34347494950849      1.18745980957248
  H   10.10390992802412     -2.07690327278301      2.41317771537179
  H   8.80670425533473     -3.25379079349546      2.30827769630905
  H   8.33054135037484      0.08895147278410      1.79039767802856
  H   7.07579535636863     -1.11209549745050      1.97590248081739
