42
Coordinates from ORCA-job dimer_001720/dimer_001720
  C   0.02490583876565      1.45561387345298     -0.26475219111461
  C   0.23187877649471     -0.08114826841452     -0.23779334251461
  C   1.39398298855111     -0.54306265726957     -1.14472665470777
  C   1.13226060683063     -0.22057634235880     -2.63300272823672
  C   2.82325945166697     -0.08601571071548     -0.69266554824920
  C   3.32568283429883     -1.55948823400405     -0.83835825804002
  C   1.83986298442801     -2.03428114418217     -0.94835798980418
  H   0.95279592392370      1.96766502660216     -0.03443274446139
  H   -0.31238948575739      1.78674283178118     -1.23984469579523
  H   -0.71861887766854      1.75330471141686      0.46709624811093
  H   0.44132867580071     -0.39431720202919      0.77907190595352
  H   -0.68194166476749     -0.57996845398371     -0.54408414736770
  H   1.07150558361821      0.84932832807492     -2.79297501720725
  H   1.93593088186698     -0.60833415459286     -3.24824964249240
  H   0.20218271856356     -0.67112535836056     -2.96171275431172
  H   3.30651789962725      0.65438288160072     -1.31703052591730
  H   2.84066940234756      0.25744561304847      0.33397586428866
  H   3.88588641712226     -1.72168687999597     -1.75078667872714
  H   3.89829157468513     -1.95412391909007     -0.00823291483698
  H   1.46914170694248     -2.45936651264564     -0.02388107217468
  H   1.60785051901938     -2.71026152095628     -1.76148254423812
  C   7.11626789408806      1.76648633311657      0.12400231422604
  C   6.61311204521651      0.29924470282532      0.10944706400616
  C   7.15396749441223     -0.50262342898442     -1.09544392109606
  C   6.63742131156348      0.05705901338581     -2.43971406950913
  C   8.70668748681483     -0.72052160507833     -1.10804246356885
  C   8.47976074168713     -2.25088871216626     -1.33492651183071
  C   6.96378139349662     -2.05787493012388     -1.00384856392692
  H   8.19900463158122      1.79916579153977      0.07416544943536
  H   6.72094366844944      2.32235064864010     -0.71790286091284
  H   6.80275651450798      2.26736070952315      1.03385779640458
  H   6.92638449100797     -0.19284069779882      1.02339598814532
  H   5.52854408664607      0.28960337352121      0.09347496548541
  H   6.98799914651042      1.06997716381011     -2.59781491860284
  H   6.99023350300291     -0.55414476943095     -3.26231402939582
  H   5.55332810952100      0.06210021035921     -2.45725780504697
  H   9.25308720811393     -0.19524632227545     -1.88091424775129
  H   9.16312793933654     -0.50526496143120     -0.15004973428626
  H   8.65139235927684     -2.55516035510660     -2.36055659631268
  H   9.02979723241194     -2.91596985431388     -0.68042157825505
  H   6.70721099683958     -2.38862119188429     -0.00523661342262
  H   6.26180098915472     -2.49057002550553     -1.70457223194069
