38
Coordinates from ORCA-job dimer_001890/dimer_001890
  C   1.33503692173173      0.92593820334452      1.62326870065061
  C   1.21297287958922      0.24336876447356      0.22889352954723
  C   2.50052535267562      0.41696006214125     -0.64973475060588
  C   2.70606950570344     -0.99358140686413     -1.25603410907375
  C   2.07567060193746     -1.91210856582088     -0.16448829966271
  C   3.10040182997836     -2.28748867760185      0.95047101682859
  O   0.99089142126843     -1.16080213923551      0.36901117762045
  H   2.18037052018702      0.52347643917325      2.17013141917058
  H   1.47442368519832      1.99607290163473      1.50498965618444
  H   0.43369617162117      0.75306174250583      2.20298427301727
  H   0.34905097922072      0.66706948107497     -0.29293556490145
  H   2.36950377938695      1.18077513847807     -1.40701866669304
  H   3.34531965160537      0.69955413338185     -0.03346346207273
  H   2.15958286203109     -1.09153006434774     -2.18768066062968
  H   3.74692960767344     -1.22498604360236     -1.44243993666516
  H   1.66902319792923     -2.82953165092413     -0.59842984495660
  H   3.54962119389450     -1.39680336878087      1.37349103840617
  H   2.59789401999457     -2.82969076688448      1.74513860575829
  H   3.88793900680912     -2.91393349193156      0.54495641705072
  C   6.21102583669314      0.82177217392231     -1.33408093642720
  C   6.38215238578006     -0.29380827794351     -0.27083983211857
  C   6.76988075455083     -1.69149240928192     -0.86762722305809
  C   7.77851282413860     -2.27092376449333      0.16764226632763
  C   7.90944088443638     -1.13547709628603      1.24448560032553
  C   9.35849066354310     -0.91337561863799      1.75017138916068
  O   7.44671684492674      0.05049197499884      0.60765654389082
  H   7.13154975457789      0.94277383219097     -1.89547685866733
  H   5.40989711280023      0.56740692124729     -2.02062667657989
  H   5.97172650916664      1.76472495936314     -0.85204184996851
  H   5.45118164346886     -0.39939136034128      0.29618440063737
  H   5.89931919944178     -2.32395774142773     -0.99280630705862
  H   7.23746017434870     -1.57039563628825     -1.83726186284527
  H   7.42675975769729     -3.19478446836697      0.61175074272128
  H   8.73835923849983     -2.46698423130295     -0.29451754207652
  H   7.26287666705353     -1.37773274342803      2.09594548714128
  H   10.00867743144525     -0.66618570948896      0.91749302658579
  H   9.38469887656337     -0.09706820281802      2.46564998404631
  H   9.73014625242929     -1.81262929183078      2.23153110898945
