38
Coordinates from ORCA-job dimer_006121/dimer_006121
  C   1.30646491596164     -0.57524990278906     -1.38739763854346
  N   0.41897716668032     -0.77052718988529     -0.26149150153439
  C   -0.87620095941513     -1.25345333530226     -0.17406159568220
  O   -1.65476275815276     -1.64724055314396     -0.99616834308577
  C   -0.85094706918551     -1.05929931126089      1.38530875237157
  C   0.61640581722487     -0.53151674613497      1.17250102175727
  C   1.71909205619358     -1.42289851917992      1.79699436600224
  C   0.83077784486461      0.96108086082660      1.52666896273105
  H   2.12524009706137     -1.29935114990493     -1.39088734523492
  H   0.73144555716762     -0.70288957086199     -2.30697333281962
  H   1.73713458824380      0.43077171394940     -1.37897082723750
  H   -1.55747840178993     -0.32527821345554      1.75906700161783
  H   -0.93767720196038     -1.97817736290957      1.95587889955148
  H   1.56400130382785     -2.46229066410379      1.52896555484739
  H   2.69546260315059     -1.11226289784908      1.44266409073642
  H   1.70391623557150     -1.33483485290509      2.87798323476673
  H   0.82448386122997      1.09452169219789      2.60299944349299
  H   1.78494027468712      1.30754903985932      1.13696254544058
  H   0.04208782194320      1.56737427519555      1.09495603612316
  C   4.95988250661954      0.36540277164316      2.57655879879367
  N   5.12302961646351      0.00396656259425      1.18519581679784
  C   4.60431913588216      0.54594768398691      0.02111765181613
  O   3.82412904189563      1.43354117067962     -0.18195790052179
  C   5.44158549095793     -0.46944298487364     -0.83545055662080
  C   5.98991103428113     -0.99245242900226      0.54401933473352
  C   7.49981834763197     -0.73516478902974      0.77632751467753
  C   5.60996243867374     -2.45487331689734      0.88540826193868
  H   5.88819725611684      0.75232567259366      3.00645077287742
  H   4.19792482416719      1.14519311997828      2.64337556248608
  H   4.63145548748261     -0.48924930250580      3.17362858515063
  H   4.84694918838789     -1.18173320257484     -1.39874154117644
  H   6.17941679673000     -0.01013083106459     -1.48593804213629
  H   7.74885032426495      0.29607711379727      0.54932213996299
  H   7.76152812383563     -0.93666840188275      1.81008719073169
  H   8.09178488252842     -1.38584284181648      0.14082635422336
  H   6.17176899326627     -3.14199883053938      0.26092971584047
  H   5.83991884070313     -2.67078533562237      1.92378376905717
  H   4.55060191680674     -2.62158314180632      0.72289324606723
