38
Coordinates from ORCA-job dimer_006128/dimer_006128
  C   0.13746645673683      1.45880094605607      0.07258229589438
  N   0.15835702079512      0.01048152845599      0.05092717322331
  C   -0.92060404585742     -0.97756661040914      0.04693086447045
  C   0.18668156584303     -2.09880712171510      0.01928279630925
  C   0.25871361724158     -2.97898923794090      1.28585216145402
  C   0.23327865103710     -2.94098244764223     -1.27403515917007
  C   1.20649908550189     -0.89775113447354      0.02700718304605
  O   2.39671758638153     -0.76478122154179      0.01721596630957
  H   1.17000327754621      1.81562512400897      0.06756312019425
  H   -0.37404638353347      1.86701690221307     -0.80362386706719
  H   -0.35635401343401      1.84075229148303      0.97051199871449
  H   -1.54328722621486     -0.97135405206657      0.94269196598445
  H   -1.56090482008357     -0.94491769822103     -0.83574113793909
  H   -0.57839030797876     -3.66982025362291      1.31182133899704
  H   1.17984653231271     -3.55412742021026      1.28550007155349
  H   0.23346424605869     -2.37020138494076      2.18381026512164
  H   0.19040350830154     -2.30581030867578     -2.15284657031256
  H   1.15405754142111     -3.51562459250591     -1.30905631546572
  H   -0.60439634718552     -3.63096470044706     -1.30387473818749
  C   6.83864837670234      1.46911285939769      0.07099009385157
  N   6.83754741448296      0.02138833270116      0.05094282616324
  C   5.74105197103585     -0.94958041365322      0.04720224268649
  C   6.83086263623024     -2.08740432832849      0.02043454215191
  C   6.88725893684196     -2.96850670201478      1.28704171139254
  C   6.86282273409793     -2.93132467812495     -1.27207928737708
  C   7.87086987107104     -0.90301041434948      0.02764069710222
  O   9.06369772943219     -0.78921404050445      0.01784462724431
  H   7.87583208536632      1.81172783713348      0.06538288331283
  H   6.33172635199672      1.88324021165668     -0.80496756193979
  H   6.34945281176822      1.85876055270770      0.96799604419639
  H   5.11335239923870     -0.93189471399930      0.93942649648079
  H   5.09601445456386     -0.90622191574200     -0.83180750496554
  H   6.03515870417484     -3.64043551194641      1.31399873579740
  H   7.79612948880897     -3.56256199270351      1.28744751150883
  H   6.87439145827442     -2.35808893708493      2.18395801903683
  H   6.83305791915000     -2.29505688162400     -2.15044250331325
  H   7.77128541237813     -3.52497103655336     -1.30707148027548
  H   6.01004529949554     -3.60225683477195     -1.30233550618447
