36
Coordinates from ORCA-job dimer_004115/dimer_004115
  C   0.94622116079842      1.57831632553904     -0.16355149124012
  C   1.07385825148319      0.04694525983600      0.02261262108512
  N   1.50176377427853     -0.70591371739687     -1.18327912377068
  C   0.53388537889430     -1.44849973828418     -1.98147996743489
  C   2.61973871026146     -1.39596193783528     -0.49621501189199
  C   2.34821350553027     -0.47662784354238      0.70941855881605
  N   2.89168677622178     -0.17831595713182      1.80184943078748
  O   4.05772780613269     -0.86521387227741      2.05482445712156
  H   1.84580284823694      1.97302818851903     -0.62396149273614
  H   0.09887467743144      1.80908226309538     -0.80200124956665
  H   0.80146565235592      2.06106542879716      0.79881823150516
  H   0.16803065939371     -0.35096413215012      0.48974529405411
  H   -0.20718047617397     -0.75773575615411     -2.38523415615746
  H   1.04174971015505     -1.92261152473966     -2.82217544868495
  H   0.00675065550060     -2.22471964649357     -1.41751808397219
  H   2.45494497933663     -2.45581745190629     -0.27837691144823
  H   3.59299101928079     -1.28319964821197     -0.97922177279949
  H   4.37851771488983     -0.52642715157152      2.92181672029048
  C   6.89406359211080      1.52283270564397      0.27513571253223
  C   6.91839565608519     -0.02478338763220      0.27223762824027
  N   7.47212284217832     -0.64814498252785     -0.95680495090375
  C   6.58311149777631     -1.22113181773397     -1.96039325707158
  C   8.44466337946681     -1.49552136882993     -0.22454407685536
  C   8.05558284779949     -0.71609536948011      1.04565060755987
  N   8.45611182250376     -0.59528914380184      2.23011014502178
  O   9.53832259757135     -1.38951497359772      2.54020782442174
  H   7.86616378083767      1.91302302473333     -0.00707120692320
  H   6.15467573604152      1.88565242302677     -0.43241233236590
  H   6.63966009536786      1.89109952533627      1.26463069162908
  H   5.93730935630118     -0.41382808994846      0.56380137256166
  H   5.93212768621155     -0.43895612198426     -2.35262316744329
  H   7.17160728725741     -1.61407683478393     -2.79039957500643
  H   5.95407362021950     -2.02935877876749     -1.57294357645465
  H   8.19347738741313     -2.55941081563573     -0.17243676713863
  H   9.48174613731273     -1.39427232028099     -0.55345250428824
  H   9.75139387353705     -1.18135476182722      3.47803482852727
