36
Coordinates from ORCA-job dimer_005318/dimer_005318
  C   1.38799880393097      1.66965194606296      0.56569482305179
  C   0.74585821540610      0.64622281507169      1.54647430141099
  C   -0.04930458823941      1.37424052187699      2.66082747193718
  C   -0.14250689718720     -0.32593401324730      0.79067084203549
  C   -1.48104108395027     -0.52097883472459      0.88211699054126
  N   -1.79468849757604     -1.51149845570771     -0.02996542581052
  C   -0.62149269125417     -1.87714885408077     -0.63980716065666
  N   0.37419948475819     -1.18653074316260     -0.17018024637220
  H   2.05989247519561      2.33161607246326      1.10172650415084
  H   1.95232551132263      1.15744496585605     -0.20677971468676
  H   0.61917008809020      2.26966888725179      0.09156105958715
  H   1.54600702812625      0.07423637348044      2.01032813321018
  H   -0.84977795027290      1.96606628098182      2.23152827346399
  H   -0.47915928215442      0.66118179191993      3.35578890745366
  H   0.60652127518473      2.03933503622202      3.21223863345128
  H   -2.22920051483308     -0.05498847566846      1.50332151700452
  H   -2.71605579400943     -1.89312315164685     -0.20970611714239
  H   -0.57274005734510     -2.64538664402336     -1.40542621572574
  C   7.46684561189688      0.23980452605035     -0.86375365458615
  C   6.73882548792787     -0.75595257391164      0.08251759159736
  C   6.70538243728743     -0.21926210130682      1.53718319448886
  C   5.33800174888117     -1.03248698317212     -0.43302410795727
  C   4.14319323860997     -0.90359486785705      0.20260438967006
  N   3.17345343491070     -1.27484595026219     -0.69869500925240
  C   3.82967298475592     -1.61255069996247     -1.85333329102717
  N   5.12007355777043     -1.47842073811363     -1.72702562007550
  H   8.49207550935429      0.39171124013737     -0.54469673012593
  H   7.46565729284678     -0.14985210723234     -1.87661078378294
  H   6.95952669157768      1.19782330792438     -0.86443560358506
  H   7.29446363982983     -1.69070136905759      0.07309953697296
  H   6.15352209723831      0.71254457045351      1.58235901962171
  H   6.22891858174209     -0.93322464735648      2.19939572917934
  H   7.71223246435877     -0.03728067337534      1.89578964324388
  H   3.90245164070712     -0.58448444596420      1.20172024442637
  H   2.15232522978031     -1.27878921025305     -0.53297615180452
  H   3.30634382533065     -1.94474279566589     -2.74076697390780
