36
Coordinates from ORCA-job dimer_005250/dimer_005250
  C   0.36118212476989      1.65315350808370      0.62815990331013
  C   1.46176090403472      0.60331786464571      0.31971230420245
  C   1.67054271755590     -0.37997376119539      1.50594021188473
  C   2.71175052932066     -1.42936950859848      1.17173438278847
  C   3.86237501621349     -1.73430364980883      1.83004574113496
  N   4.46384410742777     -2.74964153595398      1.12527433420015
  C   3.64836121628852     -3.01207622421691      0.05519803293923
  N   2.59518021362843     -2.24392402579516      0.05618725554136
  H   0.62603363022626      2.24125483968527      1.50022208656022
  H   0.22531418973697      2.32881575259025     -0.20981245655942
  H   -0.58583057249166      1.16288944903736      0.82667888977792
  H   1.19295149764462      0.02672186503316     -0.56030616019125
  H   2.39881335542270      1.10385437200976      0.09962320930362
  H   1.97755728512724      0.16610823854836      2.39132004641243
  H   0.72299760705784     -0.86073625410749      1.73522399960280
  H   4.29314467574289     -1.32252323227383      2.72731754697984
  H   5.39380365733019     -3.15619488599375      1.31664813579019
  H   3.88454144029054     -3.77145703353655     -0.67955131162842
  C   5.94632051266443      0.21288498214673     -0.87760954163377
  C   6.82751463568618     -1.02874746069151     -0.58171567279302
  C   7.37728952223553     -1.00025689572385      0.87565054614281
  C   7.98755595537713     -2.32943973717761      1.27594410694412
  C   9.28953834862136     -2.65871174410869      1.46633422950488
  N   9.30865527668866     -3.99990603957083      1.80105913891351
  C   8.00502897402152     -4.42930395106263      1.79865017505188
  N   7.20093661558225     -3.45657021382479      1.48897255646765
  H   6.50500468577752      1.12957706162490     -0.72205784943176
  H   5.59295758761305      0.19656394905091     -1.90353033071495
  H   5.08096311648633      0.22145458516300     -0.22176293233910
  H   6.23891784203588     -1.92846771421712     -0.72208046718831
  H   7.65922148236215     -1.07564885256287     -1.27726954179928
  H   8.12083257998801     -0.21597250079716      0.97234502331299
  H   6.56401660993517     -0.76163974009581      1.55492441743863
  H   10.18990766173039     -2.06819074183316      1.39557509450228
  H   10.12971060062523     -4.55606585071781      2.00920226724490
  H   7.72454439724102     -5.45204891375464      2.03052262832691
