36
Coordinates from ORCA-job dimer_004534/dimer_004534
  C   1.06524313605712      1.35432779323350      0.75136635618741
  N   1.56045523345505      0.05300566351451      0.32704000608087
  C   1.50481786068187     -0.45271642430355     -0.94424236106882
  C   1.97852282166301     -1.72318903572786     -0.93762724148410
  C   2.11947766366068     -2.67023397728223     -2.11053202735076
  C   2.34221589353586     -2.02624284347225      0.42218196045990
  N   2.84366073124150     -3.26738394265924      0.85777627036739
  C   2.07000486069097     -0.92358386076671      1.16721653538527
  H   1.70070396713625      1.75565326555257      1.54281140467378
  H   1.08060354937006      2.04579778496524     -0.09197431149567
  H   0.04023176770420      1.29162444060633      1.13057903491381
  H   1.12951607886332      0.13698709765470     -1.76376284774212
  H   3.14830144788412     -3.00407717712546     -2.21836763619383
  H   1.49680460142514     -3.55189253914747     -1.97690968268904
  H   1.82275967683468     -2.18452354673310     -3.03357680937719
  H   3.25169246884588     -3.82418367573685      0.12188442360642
  H   3.44079509860321     -3.22969252848209      1.67342866015532
  H   2.20378565804409     -0.74350898493138      2.21762936757625
  C   4.65808889853735      1.09785931339800     -0.58418713960835
  N   5.10418365869386     -0.25024310971544     -0.26144719640488
  C   5.30337103266951     -1.26236850293040     -1.15627161053619
  C   5.71958323613777     -2.36983208692831     -0.49059714664419
  C   6.05834033539605     -3.72737059337353     -1.06994078589072
  C   5.77627032430584     -2.01616177391203      0.90075413303972
  N   6.08323372640984     -2.91674631345981      1.94310584694277
  C   5.39945524541994     -0.71524248739426      1.00557908776381
  H   5.50443515892554      1.76751214292511     -0.76681161163307
  H   4.02979392083247      1.07007956665468     -1.47540899811301
  H   4.06732523208153      1.49445256059286      0.24196523112060
  H   5.12633857427089     -1.11921537902803     -2.20975732737174
  H   7.11264254228120     -3.96187681849543     -0.94182674012236
  H   5.48687161401982     -4.51561629010139     -0.58652918349222
  H   5.83933876889208     -3.75404939491739     -2.13203284173718
  H   6.69950545370372     -3.67513335765966      1.69139080472905
  H   6.31771288445611     -2.49746005819316      2.83048058144435
  H   5.29606187726857     -0.08688292662017      1.87089179450873
