36
Coordinates from ORCA-job dimer_006127/dimer_006127
  C   2.62099714181246     -0.45407769522670     -2.27453251672852
  C   2.71788753960369     -1.17374946674845     -0.90266405190068
  O   3.80004617314441     -0.70302370010678     -0.07105812519108
  C   2.97146319486546     -0.24059422188149      1.02516869753942
  C   3.22076134360525     -1.03620737105965      2.33350131586448
  C   3.07215853701316      1.29201683357884      1.24726332077105
  C   1.71042504521117     -0.70282423626988      0.20742893316531
  O   0.52901721528772     -0.68691693107526      0.35357013234139
  H   2.56911565819193      0.62199660378414     -2.14126378713724
  H   3.49510381633634     -0.68926543111439     -2.87722446577461
  H   1.73016124673820     -0.78511721213593     -2.80276518404076
  H   2.74126618507219     -2.26241289759599     -1.03991081602307
  H   4.20991571657792     -0.79824699551086      2.71797131186271
  H   2.47689885089362     -0.76394201763798      3.07696998833357
  H   3.16205644396835     -2.10449994287374      2.15005798507367
  H   2.91947057968292      1.82864589433856      0.31660129280065
  H   2.31680051259612      1.60697994873351      1.96178303093883
  H   4.05509734284243      1.53671013668025      1.64233403040381
  C   6.84270784259780      2.55475185134940     -0.83597354748731
  C   6.29500894456536      1.10249154428198     -0.83538474343086
  O   7.10877633161266      0.16501818497645     -1.57558492817271
  C   7.40112593101982     -0.70616708030674     -0.45459735039821
  C   6.79761350682746     -2.12448457151034     -0.62559389478593
  C   8.91626557897361     -0.75098536534239     -0.11925199114668
  C   6.56013840280697      0.25614298043038      0.46005725069778
  O   6.29069418370871      0.33147907200817      1.61782332460974
  H   7.87938725318302      2.57493415309665     -0.51455242979911
  H   6.78202367015387      2.97241040583357     -1.83748053259186
  H   6.25335803135337      3.17136231973820     -0.16213016087038
  H   5.24418539604184      1.07743449649965     -1.14895328865714
  H   7.28728921784092     -2.63255744518183     -1.45114495570554
  H   6.94907193393202     -2.70045934010294      0.28252881673001
  H   5.73228887258059     -2.05730946119968     -0.82553861907851
  H   9.32062206691068      0.25226729697861     -0.02976697824029
  H   9.07037976789607     -1.27801303507378      0.81811938818015
  H   9.45098652455157     -1.27274330435351     -0.90758245215203
