36
Coordinates from ORCA-job dimer_001811/dimer_001811
  C   1.01211154797882      1.08632267803957      0.77574879238061
  C   0.58190497004523     -0.23030713682325      0.04977413826716
  O   1.05982520452717     -1.37844040737693      0.72741719314183
  C   -0.96263866811562     -0.35521652886849     -0.00647641025549
  C   -1.71822324437165      0.84896866866951     -0.58091743816738
  C   -1.52462097756199     -1.74747179724373     -0.20205714750501
  N   -1.61399633759816     -1.06220875162781      1.11068090874579
  H   2.09101239006812      1.11507043390492      0.88149535616398
  H   0.70110641941876      1.95807781193375      0.21218014242084
  H   0.56402538534715      1.13153483841743      1.76246530058716
  H   0.95285937138711     -0.18893628027874     -0.98159331136567
  H   2.02946911337333     -1.29764721278189      0.88775796656470
  H   -1.34222588177508      1.10091598317733     -1.56780624614260
  H   -2.77434228805506      0.61532217936940     -0.66025318105816
  H   -1.61232757245911      1.71557191499460      0.06276158449572
  H   -2.45949918445387     -1.86979287323792     -0.73445544641629
  H   -0.82327339294311     -2.56564907403985     -0.31706125878263
  H   -0.90362257944631     -1.43248620186808      1.74996355998925
  C   5.37564507311947      1.81398680728535     -0.03801003109216
  C   5.84105025045387      0.33778016656911      0.17307152073307
  O   6.27158944754977      0.11918575333748      1.51407603060552
  C   4.68560772404169     -0.66232660422112     -0.07876745962359
  C   3.96693272950046     -0.52821908746804     -1.42633339295248
  C   4.79850184325289     -2.02658938527531      0.56988468651826
  N   3.84633822284244     -1.01278959141548      1.08189992916834
  H   6.17347965572164      2.50115230056913      0.22687329454713
  H   5.11260133935000      1.98750279989442     -1.07582686903680
  H   4.51134950998776      2.02921362156761      0.58202057035326
  H   6.64502614467339      0.11451485960190     -0.54037249950728
  H   6.99064625734502      0.73705848612202      1.73652915578136
  H   4.67946227272745     -0.60268143686224     -2.24268836569279
  H   3.23312909406723     -1.32084786587730     -1.53319000637000
  H   3.45143283726357      0.42355390943212     -1.50023031150029
  H   4.35297154783297     -2.88248912822071      0.07501008749961
  H   5.68443882157946     -2.24665319053059      1.15593677053851
  H   4.19487995332500     -0.57564665886816      1.93983438696650
