42
Coordinates from ORCA-job dimer_002364/dimer_002364
  C   -1.72891775717840      0.74688261704204     -0.59430426428976
  C   -1.29541766040157     -0.57459464267106     -1.28466339490666
  C   -2.14482203407490     -0.83772711269161     -2.55679215796024
  C   0.19326854300824     -0.51204609795061     -1.64172631395456
  C   1.24899085510954     -0.86038761757907     -0.60027114326990
  C   1.03383874644293     -1.77255509013948     -1.80645722509768
  C   0.43949097006639     -3.17310101972780     -1.62127908585347
  H   -1.13564721655597      0.92088646017367      0.29683230859891
  H   -1.58935779665287      1.58673066359570     -1.26568152907562
  H   -2.77530405267775      0.70640917140551     -0.31185636885430
  H   -1.45454314293381     -1.38847422854686     -0.58776349885296
  H   -2.00598241057312     -0.03630529759277     -3.27376402691808
  H   -1.84983022363378     -1.76930721133235     -3.02628500412711
  H   -3.19915048404649     -0.89399379767060     -2.30862574619485
  H   0.43650944581199      0.29965432161234     -2.30945479456491
  H   2.14633261523242     -0.26436253620397     -0.54556138659146
  H   0.90352145099532     -1.21491071123081      0.35773419612689
  H   1.79172885096964     -1.72637895743717     -2.57375288685606
  H   1.22644598063174     -3.88548170651200     -1.39080854297019
  H   -0.27870675070347     -3.19332341483096     -0.81042030801434
  H   -0.05964169693482     -3.50261167343558     -2.52769604891661
  C   5.41065071687875      0.83547512633482     -0.63379688742695
  C   5.78013028789380     -0.51465939582124     -1.30537943065326
  C   4.94710979249856     -0.73363871448755     -2.59614189677687
  C   7.27821564155768     -0.54579114662055     -1.62519279660793
  C   8.28301181660809     -0.95554456898849     -0.55590561226242
  C   8.04140666178244     -1.85784608522852     -1.76452587924045
  C   7.35365368638010     -3.21697340037037     -1.59410249179905
  H   5.99820393348024      0.98518679868421      0.26549826109458
  H   5.60694447446539      1.66003912919329     -1.30988956959347
  H   4.35974614525106      0.85531663755429     -0.36742398179854
  H   5.55337355231572     -1.31227892403459     -0.60834236084687
  H   5.14815405630247      0.05506751143477     -3.31236750036446
  H   5.19733637598137     -1.68292782796955     -3.05582309738353
  H   3.88706181864763     -0.72840289188804     -2.36975723735653
  H   7.58791831389846      0.24637808287879     -2.28875242681029
  H   9.21754748881342     -0.42128161386130     -0.48618014945485
  H   7.89306424261273     -1.28118587762501      0.39525197707237
  H   8.82286501663968     -1.86101928081544     -2.50945339626605
  H   8.08581156948479     -3.97733185827175     -1.33788474251282
  H   6.61132510071519     -3.18758339073770     -0.80554051737340
  H   6.86196607589112     -3.51796242763662     -2.51439104109620
