36
Coordinates from ORCA-job dimer_005522/dimer_005522
  C   1.64412250377047      0.59575741702163      1.36885461356172
  C   0.61130340666750     -0.51305264322742      1.01700876385547
  C   -0.28959574909142     -0.12387949144420     -0.13585070327806
  C   -0.58201371956450     -0.76512501118202     -1.29722608366215
  C   -0.07931039717477     -2.10860636812614     -1.78799205041369
  N   -1.47657009297917      0.00305851385377     -2.04005753535539
  C   -1.71229311055342      1.07251137986012     -1.34507402694843
  N   -1.00921635162079      1.05345429057436     -0.15899246422510
  H   2.31364710480347      0.25009788789659      2.14953737739768
  H   2.23820790833859      0.84466008015585      0.49639891591952
  H   1.15135865793175      1.49570352129710      1.71938506689239
  H   1.14069417297343     -1.41895130411974      0.73379241837231
  H   0.01231406753616     -0.74662984344246      1.89527894484955
  H   0.88043956697781     -2.35324325149560     -1.33723605497015
  H   -0.78602389317126     -2.90029371663360     -1.54986861751577
  H   0.04126079827380     -2.08467377790771     -2.86679489486150
  H   -2.36295622328409      1.89330986989125     -1.62127216154431
  H   -1.01342074972204      1.76138309899350      0.56205456234512
  C   5.47758828686409      1.92060275824646      0.31219711201008
  C   5.63462524670635      0.83277105018517     -0.79161720010858
  C   4.77534879146052     -0.38322098495666     -0.51671235406799
  C   3.68113050470884     -0.87945723295019     -1.14942295842780
  C   2.97028045030705     -0.34590043689837     -2.37647427592991
  N   3.23719452878121     -2.01927110814897     -0.48286499196319
  C   4.03981076815307     -2.19943677659043      0.51972674971785
  N   5.00918944045386     -1.22115306084913      0.55480805151326
  H   6.09771200101038      2.78238288045951      0.08519658223709
  H   4.44420706864921      2.24579222441048      0.37673270153708
  H   5.77221240975625      1.53325581564426      1.28156507682470
  H   5.34851265815455      1.24693525510603     -1.75330206335038
  H   6.67947956679465      0.53887545703143     -0.86821179754568
  H   3.53526954291870      0.46119864999855     -2.82913281839627
  H   2.84234904713306     -1.13436019484727     -3.11380651578234
  H   1.98035239213306      0.02635699084696     -2.11929354295774
  H   3.99080940595861     -2.99681547101497      1.25206162375304
  H   5.76410698994468     -1.13483046763811      1.22192655051764
