38
Coordinates from ORCA-job dimer_001784/dimer_001784
  C   0.79199993827741      1.44488268223067      0.07036464399237
  C   1.16307063721020     -0.04172824501716      0.08240636061926
  C   2.59201377150933     -0.48719002993858     -0.21162453213464
  C   2.02278032211471     -0.63442991768951      1.19476448329932
  C   2.55258725568256      0.25547541280619      2.32241937682809
  C   1.65148374630937     -2.05492129465233      1.65602765265863
  O   2.82480262797465     -2.69667256490530      2.15887248574879
  H   1.63409390257274      2.06185571508996      0.36074366932879
  H   0.48200474299219      1.74606627292015     -0.92621244563831
  H   -0.02775088666094      1.64170770055648      0.75537688846392
  H   0.38185399091936     -0.68474254051510     -0.29261985542467
  H   2.74955811837920     -1.37839453604902     -0.79892570740642
  H   3.32939671885968      0.28282852456973     -0.37287094959507
  H   2.96839283473701      1.17781709545410      1.93580823978178
  H   1.75838772309958      0.50096566669196      3.02096467867555
  H   3.33300177762375     -0.27102757310766      2.86275622158692
  H   0.87508580454973     -1.98673594005394      2.42924563115178
  H   1.22567976023390     -2.60885920918836      0.81107039398408
  H   2.58429497883285     -3.58002205193616      2.49589318836945
  C   6.66579215915061      1.46861223883930     -0.28141583542796
  C   6.48639220170968     -0.02561280951999      0.00411753531531
  C   7.67453268133196     -0.98182152183057     -0.04508855889249
  C   7.00843732498507     -0.66200047929856      1.28753216673005
  C   7.76261119675120      0.17409736048583      2.32456640872057
  C   6.12422800282484     -1.75730218594654      1.90847373615316
  O   6.96444047871241     -2.67875583176133      2.60639511630104
  H   7.65560594581171      1.80695548158864      0.00102010884878
  H   6.53229038713625      1.66776474443801     -1.34059195405997
  H   5.93625053449819      2.05499190604391      0.26947550789602
  H   5.55103166729081     -0.42560144391436     -0.35348896082297
  H   7.53196629862739     -1.96435974191998     -0.46661599999465
  H   8.65013381356639     -0.56211442416622     -0.23059589083199
  H   8.46580926967831      0.84997062881309      1.85410656711383
  H   7.06834018121042      0.75834647158031      2.92055640842187
  H   8.31292483669303     -0.48686053558716      2.98818465116290
  H   5.39815375285341     -1.29071384438156      2.58544055964615
  H   5.54968226640104     -2.25527073617691      1.11867537433558
  H   6.40317723554933     -3.34794444455197      3.04061263509501
