36
Coordinates from ORCA-job dimer_003076/dimer_003076
  C   1.03788239031498      1.59429532925330     -0.27717977655632
  O   1.11086020751114      0.20329482898624      0.00419352266030
  C   0.22574217538987     -0.58753268527028     -0.77801687978736
  C   0.39835211739872     -2.07290145182638     -0.33999942837763
  N   -0.51254727773231     -2.91164546943393     -1.13997429905858
  C   -0.03611662228197     -3.37743455222894     -2.45211321131089
  C   -0.19010883440180     -4.33965468156587     -1.28210479743442
  H   1.29818519416192      1.81669418233679     -1.32025669356724
  H   0.03715308928781      2.00073810909505     -0.08070851591163
  H   1.75334266359837      2.10393408717933      0.37582152954862
  H   -0.82030646497073     -0.28983489399392     -0.63265867848295
  H   0.44697156384885     -0.49434291228801     -1.84882136169487
  H   1.44769589937479     -2.36109913836428     -0.44472307550453
  H   0.12745764095690     -2.16922394615722      0.71251891499471
  H   -0.76687020898943     -3.38530903678574     -3.25318895227828
  H   0.97119731831415     -3.12515111561670     -2.76696330445370
  H   0.71508912551916     -4.72314565024079     -0.82231565322242
  H   -1.03013318844040     -5.02530117350384     -1.25655099611343
  C   8.98759949304761      1.58553485664717     -0.27477259835351
  O   8.98808096068952      0.19447186394077      0.01589073051276
  C   8.07771629050002     -0.55756709463058     -0.77564569466582
  C   8.16404227842809     -2.04402106537308     -0.31623381181019
  N   7.25243245041091     -2.85322385455868     -1.14508733793302
  C   7.76471100594183     -3.35635477158455     -2.42962529770485
  C   7.51986181732362     -4.29529022950478     -1.25610084347466
  H   9.27681626694559      1.78798940436171     -1.31429526520243
  H   8.00453517402687      2.04131603177815     -0.09845229582758
  H   9.71589929327548      2.06462809289725      0.38710622661813
  H   7.04631207562827     -0.20262263999677     -0.65630332296693
  H   8.32637134548136     -0.49004497002177     -1.84237039722961
  H   9.20344153233816     -2.37771031996192     -0.37374320760332
  H   7.84624180817738     -2.11638104341743      0.72511839176303
  H   7.06967372126469     -3.34447210638279     -3.26183730847534
  H   8.79422151540202     -3.15004778499121     -2.70311601435141
  H   8.38724777240874     -4.71011540957183     -0.75280558769592
  H   6.65154140984942     -4.94522478920434     -1.25878670904861
