36
Coordinates from ORCA-job dimer_004132/dimer_004132
  C   3.36341497656518      1.74867292262423     -0.00713545005185
  C   2.39500246391675      0.58067927805473     -0.23601357369019
  N   2.77894815827253     -0.76017382191073      0.24488855412552
  C   1.63988230782890     -0.09523992914759      0.90639199148325
  C   1.80618647245781      0.33426693350256      2.35094053693297
  C   3.17681029402202      0.23113222254673      3.02113432701510
  N   0.74952306234462      0.74489004731616      2.92540290179762
  O   0.93611870775632      1.12861662936072      4.22953036571258
  H   3.99261773048137      1.56895598000317      0.85655150053105
  H   4.00405698801486      1.87915795394957     -0.87446070168834
  H   2.80783948046454      2.66925855048576      0.15106092667864
  H   1.84872596678828      0.63872424760680     -1.17261583338528
  H   2.49552199181274     -1.51798040502742     -0.37899736414864
  H   0.63269599432026     -0.42873838900436      0.67746962804665
  H   3.83276774795858     -0.36712261881586      2.39891342316328
  H   3.61533330507149      1.21662234579657      3.16339847763873
  H   3.07788081445663     -0.23192273204030      4.00031729689849
  H   0.04859131340605      1.40561998439440      4.54942071476930
  C   6.81466026643254      0.34359969476860     -0.75772928399843
  C   6.29275969901662     -0.49169415705804      0.41948942906266
  N   7.14738914773369     -1.57847164054429      0.93435956058392
  C   6.92042709367434     -0.41263950894338      1.80935966587982
  C   8.10072263449431      0.48932429730156      2.10885288482622
  C   9.42825321671221      0.27863103148655      1.37821816346768
  N   7.90166698877495      1.38001114987568      2.99373454953868
  O   8.99266040814070      2.17886072468688      3.23498655030676
  H   7.89580595162301      0.30006019577993     -0.81163477439126
  H   6.41117346920265     -0.03509075457422     -1.69217641304077
  H   6.51228336606583      1.38098086083977     -0.64769143179836
  H   5.21676280248735     -0.65654336982935      0.40807821372458
  H   6.62281011648163     -2.40479356844812      1.22764428651646
  H   6.23732197784320     -0.50583702839921      2.64665656970813
  H   9.38442957681566     -0.64030367376097      0.80175016904870
  H   9.63845098769592      1.11506405699860      0.71554336113775
  H   10.23982067019000      0.21593169861887      2.09969511828203
  H   8.70817585067536      2.80068679150592      3.94115365931630
