38
Coordinates from ORCA-job dimer_002293/dimer_002293
  C   2.17165951734939      1.82330112916394     -0.98352904460822
  C   2.08224720906909      0.34345679260683     -0.52583827459502
  C   2.50838554855265     -0.63045217530376     -1.65605965763812
  C   2.37222795908010     -2.10349774551509     -1.21814049113200
  C   0.90718702561034     -2.63869495334775     -1.05380788241441
  O   1.11881398329739     -3.61194460997882     -2.10841840086579
  C   2.48604288556016     -3.18855646845846     -2.34707555087633
  H   3.18101712527005      2.06556320924471     -1.29769788804711
  H   1.50596336494857      2.00396901829297     -1.82102848995966
  H   1.89505895037922      2.49437500170114     -0.17678238502099
  H   2.71690892933457      0.18911572098249      0.34054966468211
  H   1.06576401383553      0.11885929949126     -0.21993831155828
  H   1.89585834835080     -0.46003761447367     -2.53503513502680
  H   3.53678304079269     -0.42743301868329     -1.93647415776831
  H   3.00252619001976     -2.30351591150507     -0.35926446248274
  H   0.67518343689405     -3.10358851739301     -0.08990046326362
  H   0.12203522414337     -1.91667695986152     -1.29970453963921
  H   2.63696122343379     -2.79401288634490     -3.35755745002088
  H   3.21162733292032     -3.98830061734664     -2.16615578124164
  C   5.61027866918957      0.95332177422710      0.87543192459797
  C   5.97185315139857     -0.46983032345496      0.37452442016805
  C   6.91075804643590     -0.42199131259365     -0.86011452957909
  C   7.27626642108291     -1.83926664200592     -1.34633424452912
  C   6.13172721491312     -2.64827163970807     -2.04918217733625
  O   6.89998620254335     -2.71365721115178     -3.27798291244672
  C   8.00512175900864     -1.94808795949565     -2.73158027050304
  H   6.50599781426123      1.49297921672410      1.16450842961623
  H   5.11253355928096      1.51848257004142      0.09514513871267
  H   4.94969374186704      0.90500870950709      1.73495474610851
  H   6.45530862320283     -1.02531216580563      1.17172111079390
  H   5.06614463286205     -1.00768031345677      0.11625265587690
  H   6.42809242662584      0.12307874118686     -1.66434174095867
  H   7.81829105885442      0.11683129539143     -0.60579096502715
  H   7.77001857001571     -2.39275438040855     -0.55562296134316
  H   5.91702991884163     -3.63652231171299     -1.63012416236828
  H   5.19350346070204     -2.10008606368043     -2.17222210193325
  H   8.15612112802027     -0.99600952619704     -3.25094973406348
  H   8.94672629205121     -2.50721515067772     -2.73069792430876
