38
Coordinates from ORCA-job dimer_004828/dimer_004828
  C   3.79832619716404      1.88350394583741      1.55426316841904
  C   2.77750951496791      0.84070917538153      1.00807784251317
  C   2.99557027663621     -0.53715123837667      1.60446367812033
  C   3.37432605176077     -1.70525246041233      1.02711917924996
  C   3.46443937598670     -2.69260930411986      2.06687585248071
  C   3.13297393439924     -2.08776805539842      3.23451016475814
  C   3.03542536981657     -2.64258392107934      4.64221952710622
  N   2.85020394788340     -0.77025132915619      2.95156458302179
  H   4.81646876736898      1.56363602375136      1.35211323860843
  H   3.63874019038947      2.84879808188705      1.08419682502823
  H   3.69035108054079      2.00618249069284      2.62619547094397
  H   1.76422742866844      1.17887061226543      1.21548202721135
  H   2.87350003085477      0.76476499012739     -0.07046900308126
  H   3.56494174685721     -1.86123239396282     -0.01756706593294
  H   3.73647583636496     -3.72428284888518      1.94583980900590
  H   3.65271740080457     -2.07593389432559      5.33604653025442
  H   2.00900155822844     -2.61528965546038      5.00402611320872
  H   3.37068798756630     -3.67506663716543      4.65001885393618
  H   2.56090623553022     -0.08064591135735      3.63059824803809
  C   6.00377601970392      0.07051432717766     -1.24118895551629
  C   7.08753500379760     -0.77638421387607     -0.51075681436861
  C   7.30535569625773     -0.31064039636621      0.91650317438101
  C   8.29814091570887      0.44073492728507      1.45593335069961
  C   8.00064570359814      0.60986635352361      2.84842725637334
  C   6.83844620264729     -0.04490233816763      3.09828507355364
  C   6.06038621792775     -0.20842707042330      4.38843214315234
  N   6.41292921885520     -0.60591627797781      1.91806635649573
  H   6.29820329359502      1.11443500815977     -1.26834373509364
  H   5.86855136814885     -0.27754064325591     -2.26033130294458
  H   5.05393344957845     -0.00148131298642     -0.72448977337866
  H   6.79566365807559     -1.82376247032880     -0.51753671366002
  H   8.02916582614113     -0.69953963569239     -1.04534035180095
  H   9.14925200762341      0.83194692942102      0.93230401273952
  H   8.58756539500927      1.15002403665425      3.56648834970972
  H   5.07481397202966      0.24328889158688      4.31300406789541
  H   5.93035662937484     -1.25954998877559      4.63605152819207
  H   6.59724435634424      0.27179630483512      5.20015306962574
  H   5.56525313379212     -1.14818610103653      1.80128622105351
