38
Coordinates from ORCA-job dimer_002330/dimer_002330
  C   1.17145818183741      1.43320676575286     -0.18900672858680
  C   1.44977464959706     -0.06265869894193     -0.00162188398867
  C   2.86589396549344     -0.61057688006327     -0.15638711325776
  C   2.20285710488702     -0.58680301392058      1.21710056709047
  C   2.72423561066356      0.35539310261757      2.30597777007368
  C   3.91854757206666     -0.29306646544014      3.06597641727463
  O   4.38575499514984      0.64543160759341      4.03433644924310
  H   2.03410091940920      2.03038770497900      0.08198663437651
  H   0.93065567166464      1.64229964170058     -1.22731295125179
  H   0.33204714535496      1.74702426783007      0.42505719235058
  H   0.65610856369901     -0.70019571264094     -0.36170021173503
  H   3.00580444063335     -1.55973719819829     -0.64950211291327
  H   3.65567958782734      0.10052405078783     -0.33796719874433
  H   1.86719343432481     -1.54035193963577      1.59510628925393
  H   3.05907079430583      1.29203675001927      1.87579252208306
  H   1.93387854205059      0.58697980653016      3.01468890971829
  H   3.58362461638211     -1.22597913465707      3.53585264355511
  H   4.69710044113430     -0.55596187125198      2.33863817142489
  H   5.11297659133721      0.25157088882528      4.55206287079644
  C   6.38800268301999      1.38492186029062      0.20834918165769
  C   6.72223316865492     -0.10771640412042      0.10490213779097
  C   8.16551595468601     -0.57525076571477     -0.06231308283058
  C   7.42211738194411     -0.84159951949996      1.24327269472898
  C   7.82978106461067     -0.10512119748616      2.52291811668041
  C   8.86931219996863     -0.93429879533984      3.33210876553116
  O   9.15597186396114     -0.22681605664133      4.53835253947232
  H   7.21148712228557      1.94417939738516      0.63647259320171
  H   6.18072980860519      1.79226456562932     -0.77698531119642
  H   5.51202558385883      1.53951050991296      0.83258530660321
  H   5.98136072598445     -0.68254272889434     -0.43047621384005
  H   8.36802133582042     -1.40331450804669     -0.72378209086775
  H   8.93958783864712      0.17576255804776     -0.04980479381592
  H   7.10301549512993     -1.85915148084960      1.40883738857940
  H   8.26333261343210      0.86021657648753      2.28808625677851
  H   6.95941460790300      0.07876211109306      3.14462271085604
  H   8.45694589854666     -1.92990157400969      3.53838151055277
  H   9.76816472942494     -1.07612766955153      2.71899172817848
  H   9.83666409569658     -0.70854655057813      5.04442832517570
