36
Coordinates from ORCA-job dimer_005077/dimer_005077
  C   0.55442345874377      0.34326054820098     -1.04404840747711
  C   1.35106374321039     -0.19908723041469      0.12450252737231
  C   2.64271899274925     -0.62271869594203      0.12764327598222
  N   2.96681664408440     -1.03589004303315      1.38731742890844
  C   1.87263958347270     -0.88049436919615      2.21355346735244
  C   1.91235323128473     -1.25994520259790      3.67913685283237
  C   0.86008344369011     -0.36480795927823      1.46382149619345
  N   -0.46021845523481     -0.07772347864322      1.87291865201093
  H   0.23463727354592      1.36712930175650     -0.86685670458011
  H   1.15257755186482      0.33318639285846     -1.94854608650659
  H   -0.33622425642066     -0.25470005555466     -1.22109338798967
  H   3.35936137050798     -0.65701999763091     -0.67716648098226
  H   3.87813228926758     -1.40403451074629      1.66662455979525
  H   2.20682042111636     -2.29865358971358      3.80974698642695
  H   2.61305829026601     -0.64249579708573      4.23721339999714
  H   0.92899238049391     -1.13673201035592      4.11950135363573
  H   -0.59894376666995      0.06161731349321      2.86158164208317
  H   -0.94854890392124      0.59875549679268      1.30695871813377
  C   5.97344694728684      0.98270323019426      0.75794123912359
  C   6.16898990297019     -0.29733260539547     -0.02731192477011
  C   6.43764604319272     -0.43095001218206     -1.34900580468583
  N   6.51077540836243     -1.76911514263479     -1.64553905408821
  C   6.29273096567618     -2.50839758789807     -0.49922329065798
  C   6.28769469582749     -4.02285817179599     -0.51037380181051
  C   6.08018057608374     -1.62750006741916      0.51214965283528
  N   5.73899099611623     -1.91162500697399      1.86076348879847
  H   6.70636643117661      1.07397177891616      1.55577175370492
  H   6.07497104374094      1.84583815163305      0.10886767893445
  H   4.98256104312907      1.01096555785398      1.20763481060387
  H   6.57942260019859      0.32690611357244     -2.10328693615134
  H   6.69236109990193     -2.16098605908085     -2.55842552093542
  H   7.18391684908186     -4.41594306276114     -0.98547022777337
  H   6.25109995696459     -4.40607243708911      0.50388662865825
  H   5.42329682779172     -4.41348127194981     -1.04556721327303
  H   5.86864430399151     -2.87662864580521      2.13425287997308
  H   6.15495401645451     -1.27744487409322      2.53145234832521
