36
Coordinates from ORCA-job dimer_004563/dimer_004563
  C   -0.01109599485968      1.54297856724081      0.01084088403039
  C   0.02109732127305      0.01562420157065     -0.00052050014594
  C   -0.11497031648885     -0.69054822145112     -1.19004252325407
  C   -0.11192036225801     -2.07792823393328     -1.19636272781526
  C   0.02723660926407     -2.79432887497680     -0.01332679741331
  C   0.05165340234510     -4.32181942380014     -0.02160167875943
  C   0.16452977943436     -2.08777074866513      1.17669372602972
  C   0.16155981021341     -0.70111388836741      1.18301546159075
  H   0.60277472892176      1.93639465884851      0.81452662676647
  H   0.34955702212901      1.94377094858696     -0.93061180748838
  H   -1.02830793670102      1.90045425666869      0.16069517263269
  H   -0.22452709071930     -0.15174929928845     -2.11926467659892
  H   -0.21985104199636     -2.60872384054915     -2.13037228437425
  H   1.07294659803457     -4.68745522259211     -0.11279897809520
  H   -0.36358960112299     -4.71858743217492      0.89907522569922
  H   -0.51880647343466     -4.71152828738451     -0.85812925513211
  H   0.27374340435576     -2.62687450104412      2.10582913599187
  H   0.26922879564820     -0.17006636886480      2.11693869461690
  C   7.96946954222732      1.54942075855988      0.00972893004644
  C   7.99270412801339      0.02192872470422     -0.00012880230066
  C   7.85549486172411     -0.68457078119749     -1.18935423913187
  C   7.85706068594814     -2.07192727423632     -1.19515986060671
  C   7.99598810361717     -2.78801360078363     -0.01189039586404
  C   8.02592495647261     -4.31535904543200     -0.02045654352004
  C   8.13233655393202     -2.08119821074084      1.17805644407269
  C   8.13070301731250     -0.69451413878672      1.18385550926365
  H   8.58273497920781      1.93867475006724      0.81586409172767
  H   8.33643986945456      1.94636822174042     -0.93094543394508
  H   6.95452082325870      1.91532622368015      0.15480019783337
  H   7.74724631657000     -0.14600245143546     -2.11888648173041
  H   7.74932714988916     -2.60291419370989     -2.12908453869845
  H   9.04895709745238     -4.67544759470534     -0.11381639464687
  H   7.61417797187836     -4.71488143543025      0.90057740434274
  H   7.45554962667110     -4.70826683468654     -0.85556553591167
  H   8.24076802100790     -2.62007093189340      2.10739472404757
  H   8.23864164132427     -0.16317247553768      2.11757922674053
