36
Coordinates from ORCA-job dimer_003995/dimer_003995
  C   1.90277169581122     -0.28726375445730     -1.48005469016005
  C   1.38052717635656     -0.68693537123733     -0.07759633089076
  C   0.22091599863557     -1.71478054222864     -0.18011025840380
  N   2.45958172630393     -1.07572647781152      0.88129901276161
  C   2.06718194125394     -0.06025201063825      1.89807858213544
  C   1.06441735146075      0.48876847300168      0.86736255201788
  N   0.29259764876857      1.47039780465870      0.74122860809389
  O   0.28801154243275      2.32681272088455      1.81787705438751
  H   2.70554584564341      0.43840789618031     -1.39177934930498
  H   2.27790903659087     -1.16137202278956     -2.00243703923009
  H   1.09739179621906      0.14950270339948     -2.06227362761251
  H   0.56252006761482     -2.61195102000805     -0.68713587696068
  H   -0.14491549887750     -1.98519198177719      0.80493968616351
  H   -0.60020743729733     -1.28858682368900     -0.74807399573047
  H   2.48805225880707     -2.04499012978707      1.17623320931300
  H   1.59878952987806     -0.45033460331778      2.80614649311468
  H   2.87032702027846      0.62439679406901      2.18310749078922
  H   -0.33274915163291      3.04997017432627      1.57150175319386
  C   6.59171951937570      1.31037039699620      1.72743984775498
  C   6.19962914316453     -0.03630672306898      1.06996240310581
  C   5.91358569301023     -1.12138850415417      2.14524776223301
  N   5.14562993288930      0.08501404648445      0.02529437681194
  C   5.96929330694351     -0.55890142012952     -1.03076723553078
  C   7.14818357192031     -0.52816866363909     -0.04087852314567
  N   8.38375235979838     -0.75241665768667     -0.04035554897624
  O   8.87991620252126     -1.17608936873625     -1.25463397175037
  H   6.77525642992722      2.05764236313468      0.96305279271146
  H   5.78831550603083      1.65982143593505      2.36737232071516
  H   7.48923791001382      1.18957321015082      2.32564948809454
  H   5.09875352725582     -0.80114579113127      2.78601247337778
  H   5.64018486130859     -2.06078746248004      1.67724798184405
  H   6.79466434312313     -1.28245288951138      2.75805939296008
  H   4.23688744214345     -0.32466505265943      0.23513939517430
  H   5.67056077897770     -1.56978384089518     -1.32228560523773
  H   6.10089685787065      0.03684638667621     -1.93709222699052
  H   9.84590806547770     -1.29462129406368     -1.11067239682909
