36
Coordinates from ORCA-job dimer_004814/dimer_004814
  C   2.08065886357616      0.75909889826143      0.00880012682252
  C   1.40968661367157     -0.63002928487002      0.19663037338129
  C   -0.06988371511540     -0.57793451476888     -0.13393348453805
  C   -0.77001012179213     -1.30125843512990     -1.04405570166252
  N   -2.08012246403445     -0.87411182306395     -0.96884650649369
  C   -3.20149082166588     -1.36238103923016     -1.76491739150869
  C   -2.10843781498802      0.10427904399100     -0.00212022207743
  N   -0.93145389113915      0.30214309730341      0.51027009251518
  H   3.12371766978985      0.72248420899498      0.30738681331940
  H   2.02477575803932      1.07263601585779     -1.02768075541063
  H   1.56651297357589      1.49608073126866      0.61756414739758
  H   1.89001951514833     -1.36980766938579     -0.43341120231266
  H   1.53910920037030     -0.94798274709726      1.22865969053808
  H   -0.46151111662010     -2.07117098285577     -1.73120945278623
  H   -3.34829282283890     -2.43495776460108     -1.61005234526373
  H   -4.10878045723760     -0.83781062433600     -1.46183919301820
  H   -3.03016555782692     -1.18018272704554     -2.82970865671321
  H   -3.02470524088490      0.61750630080540      0.26330732424301
  C   5.89334508351955      2.14880486299416     -0.34846336266259
  C   6.56952911809063      0.79513300557928     -0.70429042496471
  C   5.75257359241010     -0.37803536132174     -0.19778330760126
  C   5.27259510175133     -1.44632501956418     -0.88290477096970
  N   4.58398313922093     -2.22385475937713      0.02491697707365
  C   3.92870102671313     -3.50066671225036     -0.23977282455464
  C   4.68480896969670     -1.57923701219784      1.23614973246919
  N   5.36981490018922     -0.48028092615733      1.13429767750905
  H   6.51250402734274      2.98225941826842     -0.66363430149110
  H   4.92691645165662      2.23192311692639     -0.83405383633990
  H   5.74169306894246      2.21046820232234      0.72477646918977
  H   6.69482188492551      0.70754821795520     -1.77876858518270
  H   7.56145175627036      0.76405029411994     -0.25854087073137
  H   5.35299072944070     -1.72000805950729     -1.92181053460391
  H   4.63992182713934     -4.33083620362663     -0.18158619782968
  H   3.13956487603511     -3.66287953509041      0.49713185997092
  H   3.48271902033378     -3.48752304650392     -1.23608178263091
  H   4.22491785629354     -1.97501916666714      2.13364642691791
