36
Coordinates from ORCA-job dimer_006111/dimer_006111
  C   0.59912657341158      0.70448755458436      1.80626539138637
  C   1.00641422548670      0.21211692231912      0.39648539519596
  C   0.55936922671514      1.19485580889709     -0.71245237126435
  O   2.43084786098502     -0.07733046668498      0.32165637292653
  C   2.24661022522831     -1.46237950668451      0.17178135745214
  N   3.04669359052815     -2.40462610518289      0.13549313043199
  C   0.68920773514728     -1.31349297604190      0.11594725105290
  N   -0.16086966426825     -2.01895023567575      1.04489419390092
  H   1.01993136879608      0.06333328145031      2.57303842357587
  H   0.95785456393914      1.71608389614219      1.96703532162284
  H   -0.48297620295633      0.69389667354826      1.89814864770132
  H   0.98694095316517      2.17765389516319     -0.53954297378029
  H   0.88214277115368      0.84118282102040     -1.68629588712938
  H   -0.52315996241423      1.28120769849256     -0.71108097966434
  H   4.04707790969437     -2.15594853856112      0.21860465309305
  H   0.31371820186328     -1.46182583202501     -0.89684464123469
  H   -0.48488832171830     -2.91215535523287      0.69841400735182
  H   0.22578086277903     -2.11182167069880      1.97429411744003
  C   5.51535830729544      0.78271023967445     -0.84105921389259
  C   6.03091772946136      0.08570654858418      0.44006315137020
  C   5.43290059800478      0.71407540568205      1.72038830589831
  O   5.80464246142234     -1.35625711608929      0.38979830397739
  C   7.16326990064539     -1.67545320528461      0.31303725004785
  N   7.75115396459532     -2.75627135824241      0.15020995488347
  C   7.59334770382936     -0.17843456674952      0.47264178372891
  N   8.41845226258175      0.46976531029038     -0.51480327725170
  H   5.84637183300720      0.25519621972213     -1.72866666711105
  H   4.42821529427074      0.80511195959807     -0.82897959644385
  H   5.89407904497101      1.79980737964302     -0.87663331259336
  H   4.34686130189981      0.66942403578957      1.67577352497375
  H   5.77642630772169      0.18495515128597      2.60311326804916
  H   5.73920596663290      1.75348925298111      1.79109960938539
  H   7.14272174102318     -3.58001007363047      0.06472748199437
  H   8.00797265843047      0.00432534622829      1.46498579569896
  H   9.40965724576258      0.40742809402514     -0.32472896789731
  H   8.21159176090822      0.21419151166236     -1.47044080487667
