38
Coordinates from ORCA-job dimer_002799/dimer_002799
  C   0.62925383794614      1.55383022645094     -0.30040059032329
  C   0.77624345484950      0.01082194667107     -0.22911225121513
  C   -0.49448277292841     -0.65170024045404      0.34448725772701
  C   -1.70414578668902     -0.65755709853831     -0.65047324953380
  C   -1.40133052112286     -2.15173977769964     -0.99811551714143
  C   -0.46438529781539     -2.22169172381436      0.26905780454946
  O   0.82535393822189     -2.77931972481866      0.11611449427421
  H   1.52672718800842      2.00641164286058     -0.70914064398779
  H   -0.20860601621372      1.83438493642564     -0.92881962148234
  H   0.46179131392595      1.96635805293403      0.68878510917880
  H   0.97746838162791     -0.38857269671687     -1.21695428324501
  H   1.62392737204424     -0.24673490740571      0.39712045358855
  H   -0.70623672667429     -0.25219391661934      1.32897781819261
  H   -2.65887771368205     -0.52905851427672     -0.15398683986281
  H   -1.64065065202809      0.04270190613016     -1.47352514540834
  H   -2.24394826949440     -2.83222485935223     -1.02207717193151
  H   -0.83394881894584     -2.25239107096498     -1.91645273569957
  H   -0.99423377701365     -2.66105084925323      1.12094169043511
  H   0.75155022051810     -3.74799239270764      0.03261301720380
  C   6.83043589899206      1.07657088853569      0.12025545877919
  C   6.29833510244900     -0.38147751770899      0.10819874638925
  C   4.76355750216221     -0.42057954502443     -0.05490767808675
  C   4.27346186343436     -0.07640383874381     -1.50175210709053
  C   4.02937813949339     -1.59618939381265     -1.77720508214979
  C   4.19263019887253     -1.87441313579009     -0.23302104007865
  O   5.08336430495358     -2.89784430356538      0.16617685027139
  H   7.91061892388983      1.09061071698680      0.22037857290639
  H   6.56790470056339      1.59011127351075     -0.79792559594260
  H   6.40462920146926      1.63061950536084      0.94978622830136
  H   6.76026491699541     -0.93787812024821     -0.70012312907860
  H   6.56984750043032     -0.88199119124361      1.03255165079393
  H   4.29376935652208      0.15089435991033      0.73625563965830
  H   3.36182019619607      0.50765369739984     -1.51252506449226
  H   5.00375961906235      0.40487541857012     -2.13934602573545
  H   3.07539552497150     -1.86569918905601     -2.21367072191216
  H   4.82937253922101     -2.04391640782879     -2.35555729057739
  H   3.21205455018137     -1.98005868907226      0.24571342335488
  H   4.66088260560524     -3.76540346703065      0.02848756937108
