42
Coordinates from ORCA-job dimer_001995/dimer_001995
  C   0.03384200231789      1.36738408000231      0.46937091720960
  C   -0.16739974437718     -0.09023804867118     -0.02172397593282
  C   -1.66504035766833     -0.48958584158679      0.06922681537684
  C   0.34367839575025     -0.27655466930508     -1.47816319656861
  C   1.83914336757082      0.02400059162962     -1.62213963721835
  C   2.85078915986468     -0.99744170363633     -1.11700557530708
  C   2.67593763327721     -0.77335933651996     -2.61717997391036
  H   1.08552235864949      1.62644092915046      0.49676444121460
  H   -0.47366157270257      2.06260558347923     -0.18993703144556
  H   -0.37108942272668      1.48964807750819      1.46782617689767
  H   0.40669339454540     -0.74970318825535      0.62077743099700
  H   -2.26660011050360      0.15443398972089     -0.56257359521931
  H   -1.81012187605446     -1.51444577989619     -0.25422839246011
  H   -2.02520765502327     -0.39781686000692      1.08800931306050
  H   0.15711799378880     -1.29904038516142     -1.78686850712222
  H   -0.22296873712558      0.36728247763937     -2.14319757328704
  H   2.10582675513820      1.06182112956153     -1.50117150867061
  H   3.75675297816905     -0.64051644371166     -0.65271445724978
  H   2.47244011995549     -1.91479582905589     -0.69387204374538
  H   2.18300401468542     -1.54165161855138     -3.19223400014696
  H   3.46377434157282     -0.26464789350343     -3.15123408272826
  C   8.13074423057959      1.45414919810565      0.16880959511447
  C   8.15419230193372     -0.06458799401022     -0.14612540092528
  C   6.70776640896321     -0.62463203466982     -0.21293453138785
  C   8.89773215342329     -0.35893677974315     -1.47932111997380
  C   10.36150127877305      0.09300619894773     -1.45198982969271
  C   11.37884781495096     -0.74234365671908     -0.68409169462702
  C   11.41258391257820     -0.71076366060013     -2.21036219089030
  H   9.13451754286982      1.83842782497398      0.30535434154097
  H   7.66118039684956      2.00148188394716     -0.64083225807753
  H   7.56928109894798      1.64372754545427      1.07692831314440
  H   8.68586852345626     -0.57146985650811      0.65241633604535
  H   6.15247248295776     -0.13814093560190     -1.00693032373640
  H   6.71562019362649     -1.69107006848403     -0.40978885122076
  H   6.18624150682624     -0.45319244466208      0.72236046405345
  H   8.86037678596760     -1.42505303243663     -1.67332691713613
  H   8.37968467042466      0.13343452957342     -2.29608916046107
  H   10.50516279058805      1.16153643403354     -1.43009716534427
  H   12.16414875060819     -0.23507805134782     -0.14528893760107
  H   11.02982854528136     -1.64327083129243     -0.20402873226941
  H   11.08937797739108     -1.59106004297986     -2.74392812630974
  H   12.21890759389897     -0.17867948681050     -2.69154735398909
