36
Coordinates from ORCA-job dimer_004485/dimer_004485
  C   1.61298430744460      1.43832290707584     -0.13404215110174
  C   1.07066507742721      0.02291280271073     -0.08621568729016
  C   -0.17466986442841     -0.48079633073759     -0.15024838908578
  C   -0.04538654570557     -1.92497343150737     -0.05073320563580
  C   -1.18578644381378     -2.92150306243623     -0.07675671291653
  C   1.27335686784624     -2.16964660212063      0.06554755978332
  C   2.07909132757766     -3.44511941817898      0.20484056055463
  O   1.96276699837867     -0.99419265477510      0.04574550791311
  H   2.28634534591620      1.56458848408154     -0.98062311564673
  H   0.78935953773327      2.13935368557327     -0.23495836208979
  H   2.16232016447110      1.67172207688195      0.77682330217384
  H   -1.09177164548409      0.06974029246771     -0.25484317829345
  H   -1.74134864135048     -2.84492382655291     -1.00875840823583
  H   -0.81773209134977     -3.93738132829322      0.01755439415509
  H   -1.87939982372839     -2.73254597387842      0.73950306207729
  H   2.77677625358619     -3.55258744429172     -0.62386867881068
  H   2.65314513504484     -3.43947627012309      1.12987283735399
  H   1.41394046405542     -4.30280361759765      0.21331721180225
  C   5.81071323509278      1.28319366727156     -0.03056093248937
  C   6.15149732711453     -0.19404740892321     -0.00814567407966
  C   5.38996069736505     -1.30084530078999      0.04582120305339
  C   6.30388557552944     -2.43099962958706      0.03928768634726
  C   5.91280593184747     -3.89353949991943      0.08899016603440
  C   7.54232700087630     -1.90494177255489     -0.01847490543581
  C   8.92493829989827     -2.52419749261487     -0.05464701264184
  O   7.46510746776455     -0.54536772587041     -0.04789018945522
  H   6.17069207522172      1.74989134633667     -0.94603984752351
  H   4.73284724310003      1.40306797296069      0.02463189873939
  H   6.26628059566239      1.79787311626084      0.81377343341994
  H   4.31424378176192     -1.34015043499347      0.08509442285451
  H   5.29189689353176     -4.15591065660299     -0.76408307084230
  H   6.78950027156643     -4.53185605881126      0.07831554400341
  H   5.34552094065000     -4.10999064789952      0.99101228999671
  H   9.44562388716157     -2.25290468201720     -0.97160081586399
  H   9.52317155586028     -2.18014272690002      0.78741796058250
  H   8.84702679637411     -3.60562835364338     -0.00668470340689
