38
Coordinates from ORCA-job dimer_002339/dimer_002339
  C   3.49446775834025      0.50125578307406      0.80397402433987
  C   2.69821938251452     -0.75743307384560      0.35844720109439
  O   3.20810713401369     -1.17812633026096     -0.90360091394558
  C   2.59527256127282     -2.32053143029426     -1.42177853097471
  C   1.32245094865133     -2.17095652358293     -2.26847773937590
  C   2.65976764858646     -2.50610430649987     -2.93477340683737
  C   3.36817219626559     -1.44364911819386     -3.78181855683935
  H   4.55653761018480      0.27383241158878      0.84726561116279
  H   3.34437188558926      1.30914559073464      0.09530094878022
  H   3.16132076129929      0.82881939039130      1.78410853707331
  H   2.81050756967060     -1.55506371863333      1.10357256649246
  H   1.62781541214441     -0.52712422138469      0.28566819461578
  H   2.67609487572069     -3.21276814857954     -0.80189530230951
  H   0.56168365470929     -2.93398905709096     -2.20346589016248
  H   0.94242662179478     -1.17085796903820     -2.41015621853718
  H   2.78669416703879     -3.52129165825822     -3.28223536498010
  H   3.15530207621856     -0.45171898956008     -3.39796089550561
  H   4.44427243697333     -1.59260596234915     -3.75614365099757
  H   3.03428916718774     -1.49603758864996     -4.81414279535864
  C   6.20764414090902      2.24691508727958     -1.50761300098458
  C   5.97994549873146      0.76243464181788     -1.90660549659337
  O   6.73376986462960     -0.05727942967616     -1.01625402451278
  C   6.53088175406396     -1.42495552678788     -1.22070284560640
  C   7.31624369896696     -2.13786038615373     -2.33265931825391
  C   7.68265801016885     -2.35949241902240     -0.86256659106425
  C   8.98441480928524     -1.76322033892577     -0.31753736713470
  H   5.86399093327729      2.41694547845016     -0.49237693649806
  H   7.26386280647457      2.49140946963614     -1.55952185831192
  H   5.66258649642725      2.90526325314333     -2.17680810247687
  H   4.91367024394119      0.50997040938722     -1.84675235825072
  H   6.29807974187221      0.59664073790266     -2.94319618716870
  H   5.51308627322194     -1.76872383793706     -1.03213219102828
  H   6.83457101165034     -2.93421839407723     -2.87868910018550
  H   7.99431296209947     -1.54031983737271     -2.92151427359485
  H   7.40562477518432     -3.31154505330592     -0.43421700213508
  H   9.15843736435081     -0.78412542000429     -0.75197045691602
  H   8.92700830232143     -1.64930318394401      0.76106469205068
  H   9.82779944424596     -2.40629832997663     -0.55171539906896
