36
Coordinates from ORCA-job dimer_002577/dimer_002577
  C   1.35476398029838     -1.87717679518632     -1.62601712605338
  C   0.50195264457833     -0.83427570756729     -0.85387579122238
  C   1.20937051283960     -0.36369991017088      0.42581225341280
  C   2.58529423942617      0.33275954476668      0.23392978694337
  O   3.64251800450955     -0.59867085802833      0.44167312175271
  C   0.38675902050938     -0.01855503661394      1.65367178849523
  N   1.21634101992434     -1.24337713612761      1.61089720292423
  H   2.31205505255584     -1.45486779478537     -1.91266430036949
  H   1.54442764421592     -2.74990332356971     -1.01008642775267
  H   0.83862436989739     -2.19773687185582     -2.52557566103818
  H   0.30986443851661      0.02716344189517     -1.48779458932286
  H   -0.46204457076912     -1.26302388195790     -0.59783884334555
  H   2.66860213818045      0.72619356573281     -0.78262849938474
  H   2.66870407650076      1.17949129102567      0.92625293188806
  H   3.37474982125675     -1.17193977843564      1.18880971500305
  H   0.72739740507484      0.76098843369239      2.32619441453672
  H   -0.69251713423541     -0.10723967660157      1.58895470788121
  H   0.66507599753333     -2.09451685302838      1.48790639546952
  C   4.78510944182450      0.59152344232913     -2.90195846581523
  C   5.67089185197189      1.25541684285206     -1.81382609857685
  C   6.80183812384605      0.31675831128359     -1.36867068037652
  C   7.82861284322178     -0.08297402344764     -2.46287008506391
  O   7.44299468548412     -1.30428663292350     -3.08628958921211
  C   7.24255541126051      0.32010693299861      0.08274982401555
  N   6.48378047159183     -0.81640493217770     -0.48155209896138
  H   5.37574788542240      0.34173612821889     -3.77754473296155
  H   4.34909459193859     -0.32509733934042     -2.51976786944787
  H   3.98392526270300      1.25782235332110     -3.20373512933936
  H   6.10099828250775      2.17614880927700     -2.19695568733709
  H   5.06308713110299      1.51674194540971     -0.95398075284482
  H   7.88045706007805      0.68929181865972     -3.23467473134913
  H   8.82502983868998     -0.16828446350530     -2.01315527679081
  H   7.13387212768750     -1.89596185898730     -2.37054407572180
  H   8.28053115149690      0.12915996109389      0.32815006097440
  H   6.74447556178320      0.99906230859728      0.76550545052702
  H   5.50207261657430     -0.82372825684308     -0.17796114153703
