36
Coordinates from ORCA-job dimer_005120/dimer_005120
  C   1.44800309109480      1.34290743323549      1.57378087149279
  N   1.46478313366738      0.27640543837509      0.58355365829804
  C   1.02492971531763      0.36735498266035     -0.70809911036130
  C   1.17447287913818     -0.84385639259693     -1.30333416935997
  C   1.73225081083170     -1.73024443966624     -0.32056765772814
  N   1.99976831578786     -3.09944747100678     -0.51245504688640
  C   1.90108120533926     -1.01522010301191      0.82455246872556
  C   2.43800847493382     -1.43804117931118      2.17224110074165
  H   2.45696862092436      1.56041859963434      1.93237092575790
  H   1.03539815901215      2.24552080661311      1.12351912352207
  H   0.82966718918781      1.06625198727463      2.43187467139129
  H   0.63751686319458      1.29286516170577     -1.10217482318329
  H   0.91859766504316     -1.09970744241228     -2.31326301720311
  H   2.09962612822936     -3.39933453103495     -1.46895647492846
  H   2.67161976305382     -3.51306773039656      0.11584911767860
  H   3.21389712522284     -0.76273826503835      2.52296230692094
  H   1.65221736238224     -1.47438610739000      2.92423756300806
  H   2.88037121838313     -2.42587648313930      2.10014094594672
  C   4.63726606741168      0.33284606674733     -0.92060451600999
  N   5.12548516439332     -0.74523921206795     -0.07193862360350
  C   5.10454924362049     -2.07358668151978     -0.37963930273771
  C   5.64034611344236     -2.77140905986124      0.65599755263091
  C   6.01538945750696     -1.81293442493529      1.65615790185034
  N   6.57068841942431     -2.12494048450983      2.91356709268304
  C   5.68780100594708     -0.57999338632538      1.18135587872383
  C   5.84613504606939      0.78492430518909      1.80989490182463
  H   5.46382377529075      0.94577707556017     -1.29077189072807
  H   4.10324908271298     -0.09500073964401     -1.76902872326986
  H   3.94269332608569      0.97190734435883     -0.37231105094483
  H   4.70778713100461     -2.41861465601676     -1.32051535862423
  H   5.76812157217432     -3.83426812684313      0.72053400061117
  H   7.00516587029256     -3.03164543967632      2.98520496833133
  H   7.09319888128344     -1.39285445878444      3.36871110350199
  H   6.52838016727186      1.41643505452157      1.24409929549469
  H   4.89447743548399      1.30564536991209      1.87491327141788
  H   6.23741351983917      0.68587918940093      2.81659704501525
