36
Coordinates from ORCA-job dimer_002859/dimer_002859
  C   0.77542255600407      1.61935310704485      0.07968913498214
  C   0.90107975625876      0.19676383173433      0.68842324994731
  C   -0.42446062443907     -0.56960829285858      0.57630941452636
  N   -0.78476229375261     -1.15326953352494     -0.73157937304038
  C   -0.49113250241300     -2.07425131783002      0.38132453526553
  C   0.79703616991435     -2.91661616629850      0.16876034742351
  O   1.55672339266275     -2.41441774127152     -0.92258860452008
  H   1.71884224769963      2.15091489990704      0.15477049508260
  H   0.50009909587288      1.55387388375668     -0.96814886069187
  H   0.01590721537707      2.19545426254575      0.59774460166188
  H   1.68244323685980     -0.35327948798090      0.17602618667526
  H   1.17920512880958      0.26223029614055      1.73680521751544
  H   -1.23105241796106     -0.13531206538586      1.15836037081274
  H   -1.77341793931156     -1.07684410330737     -0.97284614375108
  H   -1.30727070721263     -2.60261842239703      0.86207464779312
  H   1.41382919120543     -2.89664722281250      1.07435776572580
  H   0.50816165871327     -3.96136447698493     -0.00788960326145
  H   0.94195646622526     -1.90916403248570     -1.49640597095292
  C   5.82619712446464      0.94793216379574     -1.21590698118695
  C   6.10491418671752     -0.09521454448788     -0.09991484531804
  C   4.84675490679148     -0.92451862239800      0.19418073461055
  N   4.48595026696316     -2.00641166163056     -0.74035848995158
  C   4.90228973878654     -2.38015127880691      0.62060229707038
  C   6.25245983435492     -3.14904321787835      0.67789125838897
  O   6.91486644314042     -3.11182855432644     -0.57887270192152
  H   6.71576148728752      1.53203962943162     -1.42789439829657
  H   5.52026153489173      0.44318331739191     -2.12660597635497
  H   5.03330196814690      1.62643047760170     -0.91987478970341
  H   6.91322267351384     -0.75304567513551     -0.40423341338206
  H   6.41809380505909      0.40767409036942      0.81033786019093
  H   4.03273106466320     -0.34295358995922      0.61192355307697
  H   3.47793666143406     -2.09734413918100     -0.91705859903521
  H   4.15418372771187     -2.71662660396237      1.32834142107994
  H   6.90404783899977     -2.70916938202726      1.44101446780054
  H   6.04995197288329     -4.18458539698801      0.97993273370461
  H   6.23271913367626     -2.88295042979996     -1.24647354196654
