38
Coordinates from ORCA-job dimer_002800/dimer_002800
  C   -0.45570908099102      0.93051840516879     -0.31880052240325
  C   0.36407384120012     -0.35426683321328     -0.61293280016997
  C   1.80833744467375     -0.00390789280010     -1.02227455386564
  C   2.75288998261483      0.51029471009469      0.11698608617695
  O   3.66331254143356     -0.59344105923702     -0.10801438896305
  C   2.85291828337394     -1.17135175214291     -1.16458084116852
  C   2.38392586704353     -2.61260599793530     -0.84365379336125
  H   0.00417415693996      1.50237623959927      0.48027791464343
  H   -0.50753617269500      1.56118314579728     -1.20010316308991
  H   -1.46798606988199      0.67971967624907     -0.01848954738930
  H   0.37400161966869     -0.98725236636757      0.26704778075326
  H   -0.11074360213955     -0.91733683124046     -1.41077671124199
  H   1.79539865954372      0.64828219871722     -1.88802867542008
  H   3.21842806459607      1.48630682753011     -0.05438776505899
  H   2.31467364286265      0.49590517132921      1.12009262985717
  H   3.38155614720896     -1.16052793848303     -2.12297889443624
  H   1.93177138595163     -2.65921515439043      0.14050225479129
  H   1.65792177731767     -2.94408652794473     -1.57997872627430
  H   3.23184048007741     -3.29077940120194     -0.86340491431202
  C   7.55719192650094      1.41452250530417     -0.16226432731573
  C   6.97244633887401      0.00377835732770      0.11489068572070
  C   6.77762122564645     -0.78092796173098     -1.19677810481446
  C   8.07465472043412     -1.34439797277309     -1.87312774504389
  O   7.58710255705671     -2.70136486142431     -1.73226873279687
  C   6.34535215313290     -2.28808542650898     -1.09928309793761
  C   6.14020849236668     -2.89720399434843      0.30907542232357
  H   8.51378489326344      1.34032897840253     -0.66851946295485
  H   6.88539273262114      1.98839406082635     -0.79136970205393
  H   7.70488450279230      1.95906998664126      0.76452841841468
  H   7.63736903051589     -0.54123860964108      0.77470188749174
  H   6.01142431846655      0.08970242278449      0.61441956021795
  H   6.15119231745359     -0.21042809519485     -1.87202229692277
  H   8.23118732795859     -1.05694420711827     -2.91765961737985
  H   8.99967175402102     -1.16902874996506     -1.31533461965880
  H   5.48401444698441     -2.52574305726694     -1.72967152860226
  H   7.02438057866205     -2.75803276280691      0.92005060604694
  H   5.29455753469908     -2.41487129362062      0.79279713510732
  H   5.94236617975021     -3.96145593841571      0.22864615109066
