40
Coordinates from ORCA-job dimer_001363/dimer_001363
  C   2.97365871327149     -3.68095252385337      2.58058654669050
  C   2.42223612270643     -3.09848035451819      1.27085653665390
  N   1.11294017220546     -2.44177251407005      1.18300237768305
  C   0.21278913658171     -2.35578128097728      2.33584704139689
  C   2.30297933080512     -1.59534446730615      1.04522029362004
  C   2.74308652932410     -0.61772510026668      2.14727148246794
  C   2.52728759515192     -1.05396068350268     -0.37709632989219
  H   2.78856986237861     -3.03482444902655      3.42840124387878
  H   2.52259023549062     -4.64865804242131      2.78151105990884
  H   4.04698205890264     -3.81536655179590      2.49360441125112
  H   2.66105300125863     -3.70663645233326      0.40606930271206
  H   0.70583339474912     -2.23658650053273      3.30128030285189
  H   -0.46064062490404     -1.51005391446390      2.19068044271724
  H   -0.38981657859046     -3.26436640579728      2.37410398592949
  H   3.83113939245823     -0.58299911423019      2.19020285381878
  H   2.36805455868135      0.37616508868016      1.92759612086097
  H   2.37951826738631     -0.90598385792213      3.12374268791547
  H   1.94988725598488     -0.14728960217953     -0.52830240477656
  H   3.57475960667469     -0.82215452917891     -0.53927751497487
  H   2.21141809515079     -1.78774808458815     -1.11043673050307
  C   6.72303094488739     -3.74224128828563      0.94078557898808
  C   6.11687081257014     -2.33210035759181      1.00499851523297
  N   6.06560138743807     -1.53456593920256      2.23529029240452
  C   6.54687778626206     -2.04495179518080      3.52139798204582
  C   6.97562029050126     -1.08345462961663      1.17940477388665
  C   8.50020656292864     -1.20369081488399      1.33173193605124
  C   6.54296432418515      0.20875986211600      0.46619616431178
  H   7.56838796435495     -3.86316293857927      1.60529141427991
  H   5.97427428119366     -4.48289558186699      1.20677465241544
  H   7.05743127571366     -3.95081743991964     -0.07168338099121
  H   5.23020121737213     -2.23099590258477      0.38966311038714
  H   7.42393836423956     -2.69067666713871      3.46396759351279
  H   6.79109115171450     -1.19676204288452      4.16257030164121
  H   5.74129452891114     -2.60575143785852      3.99747056877684
  H   8.96617658907995     -1.17216336579624      0.35158683971081
  H   8.87896004811534     -0.36775852795586      1.91226290933945
  H   8.80211623644260     -2.12084909306389      1.81893906307255
  H   6.92312855431868      1.07729267880466      0.99501517521295
  H   6.92785157428107      0.22962262784739     -0.54873043569042
  H   5.46122197982148      0.27464599392639      0.43341723520095
