36
Coordinates from ORCA-job dimer_005603/dimer_005603
  C   1.76434438340722      1.01109187025042      0.82867015925307
  C   1.14640390816050     -0.36090393782240      0.42528740524702
  C   1.65174876367999     -0.84621901571815     -0.91722423294025
  C   2.57950024165506     -1.79031576647746     -1.22451044966603
  N   2.73742168957638     -1.86908240478550     -2.60090105508228
  C   1.92037949098732     -0.99581049950483     -3.10595730841715
  N   1.22228151629717     -0.33185262752495     -2.12049927818380
  C   0.23669560458348      0.72433281730288     -2.32275820205766
  H   2.84646212559899      0.93764110839496      0.86890726893150
  H   1.50163109451305      1.78295592626851      0.11419608961266
  H   1.40218770737931      1.31363427303886      1.80658090048945
  H   1.40862249505807     -1.10576101182177      1.17130965620461
  H   0.06172404261204     -0.28758530537600      0.41412048275311
  H   3.13325451207433     -2.41537845872707     -0.54550884800362
  H   1.76973610438199     -0.77910489886075     -4.15634630903446
  H   -0.61786207052950      0.57940174083591     -1.65862577673225
  H   0.66728658764497      1.71187367453124     -2.13264438709708
  H   -0.11489583839911      0.69047201378460     -3.35522595763194
  C   4.52299798454937      1.14478002650661     -2.09955482994380
  C   5.38116269087793      0.51341831608552     -0.96395848950675
  C   6.76397263706218      0.13621248829524     -1.45325008723425
  C   7.92891020674351      0.83815978122122     -1.44638291261999
  N   8.93335445237949      0.09374664485031     -2.04816490167533
  C   8.38171227192452     -1.02644092095532     -2.40584998035415
  N   7.04458394876051     -1.06015046442116     -2.07199909079048
  C   6.13335789178140     -2.18587855691573     -2.26615604967552
  H   4.99739956107665      2.04861567030419     -2.46779025111056
  H   4.41684669296722      0.45220016440532     -2.92719029266838
  H   3.53369605812849      1.39338284632280     -1.73148220205685
  H   5.48681977264324      1.22721485827206     -0.15232920329396
  H   4.87105941178946     -0.35943278524624     -0.56671862075459
  H   8.10398695980307      1.82350579866850     -1.05048841323005
  H   8.86438753224220     -1.85667285015330     -2.90506921494310
  H   5.94998612072747     -2.70572439540272     -1.32194675453301
  H   5.17126970490644     -1.85812368671672     -2.67263677396490
  H   6.58602674295459     -2.88828043290903     -2.96633208928885
