36
Coordinates from ORCA-job dimer_004946/dimer_004946
  C   -0.24690720190664      0.42205324664003      0.52081078747190
  C   0.64296313208399     -0.83338685869223      0.75532721152312
  N   1.99109609935318     -0.46353092408761      1.18321721991816
  C   3.13894672098419     -0.50007148140315      0.43259299411412
  N   4.16068558624318     -0.05574223415887      1.10321171260940
  C   3.68228297491394      0.29984082147726      2.35866790808217
  C   4.58324405199053      0.86414056461631      3.44039167972981
  C   2.34756042259289      0.05377186234218      2.40958193869673
  H   0.19310052424233      1.05808940203254     -0.24142454259302
  H   -1.23903735622775      0.12100194015597      0.19669195301675
  H   -0.33934619119642      0.99549533414886      1.43804687119685
  H   0.19349833809158     -1.47968012445447      1.51286982854703
  H   0.73043125485101     -1.41276758435108     -0.16477863310048
  H   3.14439288930356     -0.86709794103047     -0.58667364037174
  H   4.00950692522686      1.07508530602006      4.33684100266925
  H   5.37398903668541      0.15933476515514      3.69084651212663
  H   5.05481446561343      1.78491143599901      3.10565028510764
  H   1.62935328889071      0.19390299768193      3.20048266562971
  C   7.32343623900755      1.50026284993921      0.64674349283095
  C   8.32295461119477      0.31957210414241      0.48474136622675
  N   8.24451992619667     -0.60366497248213      1.61574841261076
  C   9.25783407283847     -0.97092566253884      2.46948481442706
  N   8.83648722385010     -1.79607938935496      3.38115276203596
  C   7.48302838284318     -1.99203604434462      3.13170367387301
  C   6.62329228319027     -2.89340928482340      3.99635706670811
  C   7.11621313400563     -1.26179687863784      2.04674409767900
  H   7.53025094233033      2.04191945880486      1.56391933732672
  H   7.41691423456002      2.18243070462605     -0.19238944751136
  H   6.30204919271125      1.12440190131050      0.68398670471686
  H   8.11488932754859     -0.22130082473712     -0.44206724895511
  H   9.34714155859473      0.68946167808588      0.42960572067689
  H   10.26551857229096     -0.59252287504124      2.35562372043179
  H   5.60151699675114     -2.90275875019452      3.63097925732381
  H   7.00351021110443     -3.91214288103615      3.98983966664988
  H   6.61937481181741     -2.54838069431857      5.02758939177874
  H   6.16145231742723     -1.13302496749086      1.55621345679569
