38
Coordinates from ORCA-job dimer_005520/dimer_005520
  C   2.98850372505940      0.00690053253260     -1.59179797841817
  C   2.57106374919201     -1.21484568055391     -0.72174730133142
  C   2.31326352481543     -0.82205979371803      0.72082214409328
  C   1.28421087372095     -0.11788458592542      1.26085554618431
  C   0.08816063603410      0.44598368036241      0.51992415959242
  C   1.54430407066550     -0.00221187255224      2.66634615300188
  C   2.71613731495415     -0.63974350249480      2.91737408059451
  N   3.18480898482541     -1.14319596656225      1.73012263460739
  H   3.89691870011809      0.45465020172945     -1.20728780253451
  H   3.16108804539330     -0.29511573591806     -2.62011342924009
  H   2.20804166525735      0.76027070768330     -1.57917243416441
  H   1.67186324183869     -1.65891318526451     -1.14075569144315
  H   3.34861205910691     -1.97201331165997     -0.75870541437901
  H   -0.82573113625174      0.28231137223162      1.08337536193020
  H   0.18907345780061      1.51738759272075      0.36172765039756
  H   -0.02373383722811     -0.02608667416997     -0.45002172057221
  H   0.91936455587387      0.49319477186132      3.38515977921675
  H   3.25676747343406     -0.78246524929012      3.83911274620604
  H   4.05923164079373     -1.63920770088011      1.61065040618389
  C   6.78860419795878      2.31853658693567      3.27710520485981
  C   5.73562643437345      1.17421923186447      3.35769464761024
  C   6.01071343290423      0.07751998737194      2.34891908640708
  C   6.40732211050305     -1.21054240891698      2.51419142735602
  C   6.70306465536156     -1.92366637283753      3.81860173185193
  C   6.50277031812953     -1.79489231156499      1.20430946174555
  C   6.16563880425265     -0.83910606960944      0.30352790326853
  N   5.86688643232859      0.30668077878878      1.00082435485514
  H   6.78659104530966      2.77582794924329      2.29357820590320
  H   6.57088058742293      3.08733064657835      4.01199139719904
  H   7.78351477150349      1.92910746053887      3.46772379202349
  H   5.74342634190299      0.74412173188661      4.35316180143652
  H   4.73877748154244      1.57933676629599      3.19320959225713
  H   6.10790716452209     -2.82843915227678      3.91219194241965
  H   7.75041670010389     -2.21157088608331      3.87117463673369
  H   6.48690647129457     -1.28817572949959      4.66970556927724
  H   6.79763920490716     -2.80402468636596      0.98436378351061
  H   6.11352512038019     -0.87582620435242     -0.77343106025259
  H   5.54883497989397      1.17662708187102      0.59638563161203
