36
Coordinates from ORCA-job dimer_005084/dimer_005084
  C   0.60980268699310      1.52120544911220     -0.00257380456804
  C   0.69233207354957      0.00947775143301     -0.00606608606859
  C   0.81468324947084     -0.82001655083945     -1.05702781269340
  O   0.85414596775651     -2.11177301556833     -0.63164543240040
  C   0.75580505838623     -2.10772103886495      0.72535416056069
  C   0.78057474046710     -3.44959619366550      1.42950219210053
  C   0.65335699340050     -0.84148954739742      1.17211915755293
  C   0.52321725012111     -0.34801210291071      2.59634987961103
  H   1.41119046703764      1.94636210630810      0.59734507564418
  H   0.68925412460515      1.91482176048917     -1.01090134119386
  H   -0.33447412681543      1.85347226654457      0.42315449687663
  H   0.88378882282125     -0.64257103126825     -2.12270354153333
  H   -0.05013943960484     -4.07230299554190      1.10116284775500
  H   1.70679937705616     -3.97916452806056      1.21190337897493
  H   0.70543121852168     -3.30503665814706      2.50264092390940
  H   1.33637367279818      0.33114800165138      2.84182449143946
  H   -0.41084536676501      0.19242580756358      2.73248537991893
  H   0.54466440236143     -1.17299605043286      3.30013161324991
  C   6.77434099799991      1.53064454657582     -0.00084543019673
  C   6.76653638862029      0.01677628794176     -0.00909462530669
  C   6.79087457871216     -0.81496528423779     -1.06509003195399
  O   6.77430523733179     -2.10825676011420     -0.64282103351207
  C   6.73733020720086     -2.10293633399027      0.71725574762496
  C   6.71294519833905     -3.44628960749854      1.41872312878759
  C   6.73105360986224     -0.83435205486759      1.16911630947146
  C   6.69350802364916     -0.33890434483371      2.59798884209733
  H   7.65398935869287      1.90736309392664      0.51647160699635
  H   6.77757647736459      1.92259869316479     -1.01287147477782
  H   5.89727363216135      1.91552922378834      0.51441591701791
  H   6.81941627688107     -0.63835277210993     -2.13273435101978
  H   5.83741600501257     -4.02023716924259      1.11901384547029
  H   7.59969415608243     -4.02658053050941      1.16856452225504
  H   6.68340490306171     -3.30100903772452      2.49408261827580
  H   7.58048161528732      0.24805650273386      2.82562738517212
  H   5.82623599118246      0.29699280538368      2.75948601805922
  H   6.64413717039676     -1.16581068879127      3.29794742640293
