38
Coordinates from ORCA-job dimer_002299/dimer_002299
  O   0.73056276381721      1.66473663534256      0.12859775140783
  C   1.04665326463702      0.27251712361128      0.14746718675894
  C   -0.23253081963074     -0.52139969596050     -0.24316212931541
  C   0.01401152155875     -2.04366009656027     -0.19517175767829
  C   0.21691247595875     -2.68207282900256      1.22141504054868
  C   -0.87129280099431     -3.75593046635245      0.88336525619038
  C   -1.23682116127171     -2.96077173153626     -0.41514813989133
  H   1.53113266158926      2.18188353232454      0.33757460639135
  H   1.85052110110755      0.03317700640054     -0.55958894675599
  H   1.38117476701044     -0.04987635879566      1.14115917264037
  H   -1.03274451366543     -0.25428243740273      0.43916759476266
  H   -0.54139164167826     -0.22415432621481     -1.24095394265959
  H   0.82260133727110     -2.30547603873211     -0.86694169163877
  H   1.20794495488290     -3.06460538355712      1.43200642767403
  H   -0.07953153845421     -2.01898076823967      2.02509201639700
  H   -0.45245060681914     -4.73431503693288      0.67884645125756
  H   -1.66810639035699     -3.86525611034406      1.60938607541556
  H   -2.17122973669794     -2.41880227919485     -0.33112974202472
  H   -1.24832202715930     -3.53209853152834     -1.33554705540397
  O   7.25395526187417      1.15762524355568     -0.20255417776386
  C   7.09111493623550     -0.25954426614719     -0.13962034351655
  C   5.56842648133643     -0.56857361675281     -0.07408113485668
  C   5.30654352715536     -2.08480503479321      0.03470329122076
  C   5.72757398266775     -2.78176742347077      1.37374008318027
  C   4.30614161327315     -3.43220769840165      1.46876257109295
  C   3.82421127345179     -2.51701557764459      0.29400317975881
  H   8.20401598182803      1.37361695776886     -0.24995072067058
  H   7.52269300695838     -0.75453719338379     -1.01852047259048
  H   7.58294185559682     -0.68242285200261      0.74514421666582
  H   5.14456291973078     -0.05813896685573      0.78430382449934
  H   5.08826333278689     -0.16907538456030     -0.96246920273048
  H   5.72554834490435     -2.59376914148472     -0.82526305150412
  H   6.56262628809292     -3.46904234292460      1.31203773713619
  H   5.91848913628256     -2.07199772844907      2.16969988959703
  H   4.30501244082214     -4.48546868502533      1.21309081766418
  H   3.78862689492611     -3.30394316596345      2.41215903803762
  H   3.21287692883538     -1.68957292413434      0.63052438879587
  H   3.32002918213620     -3.01327840665477     -0.52627810809242
