36
Coordinates from ORCA-job dimer_005524/dimer_005524
  C   1.72519626680706     -0.98817455649549      1.87708822045084
  C   1.07077084632678     -1.40559006065925      0.52783086264879
  C   0.13652636998901     -0.34879580988359     -0.02086423809455
  C   0.16942166825563      0.34807515639746     -1.18966651960421
  N   1.14248560891170      0.29171482802329     -2.20113485294274
  C   -0.97129988454135      1.22795019294919     -1.19814614184500
  C   -1.64482070876466      1.02790391272241     -0.03721928552790
  N   -0.97817209124122      0.07587421551444      0.68488110176492
  H   2.40604571453712     -1.76019549856419      2.21974588215015
  H   2.28465191056842     -0.06825910086648      1.75216898262134
  H   0.97362247002513     -0.82921152076798      2.64216499526529
  H   1.85408067305133     -1.58832298446767     -0.20021486636385
  H   0.53736127418478     -2.34364977619985      0.66499903454306
  H   1.79172824426132     -0.48428371879288     -2.19527751291762
  H   0.83199758114167      0.56432518015074     -3.11855674794578
  H   -1.23110858115699      1.91258384547333     -1.98219989920410
  H   -2.54727810881774      1.49080031791754      0.33050024901928
  H   -1.25475448221838     -0.27644762631397      1.58889724162304
  C   3.40004470265111      2.03984964351258     -0.12545030774870
  C   4.32263278354267      1.22651615237759     -1.07925517722450
  C   4.49983333717319     -0.20931895214256     -0.62941069939820
  C   4.23733657555100     -1.37759264288439     -1.27422108736962
  N   3.66371269361512     -1.52611013707698     -2.56290865444095
  C   4.58052754264305     -2.45407824122589     -0.38584508713675
  C   5.04175177285380     -1.89349462401584      0.76120692279968
  N   5.00098884200364     -0.53238286433519      0.61662730542307
  H   3.31208989000559      3.06433990405473     -0.47200759163094
  H   2.40729409925995      1.59921909435130     -0.10616179151671
  H   3.79618133327282      2.05549862657250      0.88332759444531
  H   3.87830632401239      1.22340543369777     -2.06933527789414
  H   5.29031323533850      1.71825334600261     -1.15820213724083
  H   3.95386490957358     -0.83427786389956     -3.24061929999585
  H   3.71837869876011     -2.46381901814219     -2.93452383390998
  H   4.48543500051255     -3.50243509288532     -0.59546655172293
  H   5.39866409639123     -2.35760389434800      1.66764989591567
  H   5.28472139151959      0.14064013424989      1.31390127300544
