38
Coordinates from ORCA-job dimer_002206/dimer_002206
  C   1.51033420417398      1.80630460131167      0.52800109713258
  C   1.15458301019635      0.34322219024591      0.20131699307533
  C   1.94123640050892     -0.35868533213232     -0.95335936349894
  C   1.99752215394631     -1.66187122770040     -0.06828571725391
  O   3.22556769720903     -2.35204832033824      0.03966660255918
  C   1.62348062324721     -0.78887218562802      1.18393553754965
  C   2.84756563697644     -0.42834276266860      2.04899433694658
  H   2.57739194538504      1.92517777583979      0.67113202572708
  H   1.20316589382199      2.45784644275070     -0.28400324159549
  H   1.00647199915894      2.13048154773620      1.43302525738906
  H   0.08714825316989      0.26177050500512      0.03055906146975
  H   1.45013366223044     -0.43132175678520     -1.91585826303179
  H   2.92819872729272      0.06867920009250     -1.08492219925548
  H   1.17575492991422     -2.33855369597972     -0.32455024312359
  H   3.37491799806816     -2.88188795332921     -0.76498027358066
  H   0.84082789464661     -1.20483665817928      1.80734197784299
  H   3.64843949720877     -0.02658165534042      1.44105003134597
  H   2.57762525051193      0.30864685630998      2.79788737151476
  H   3.22134793832639     -1.31427595031188      2.55210652880264
  C   5.71660334475937      1.19630443559982     -0.66015733005186
  C   6.03948355458772     -0.24074638932549     -0.20706243296225
  C   7.28737398893567     -0.93811600373759     -0.83948788887736
  C   7.63397991142058     -1.51935969203555      0.58417362291033
  O   8.96818309407873     -1.42900186190043      1.03977621117358
  C   6.65754962724891     -0.46430140154420      1.21847423506512
  C   7.39570467051965      0.75438025275031      1.80770652041345
  H   6.59103618103030      1.83241975607056     -0.59264766041804
  H   5.37576240207667      1.19944166577824     -1.69053735000568
  H   4.93523607403819      1.62771697920140     -0.04358339230294
  H   5.16020130796741     -0.86646636047736     -0.32147965156616
  H   7.10806519566585     -1.64861971546914     -1.63661554949173
  H   8.03249208009082     -0.21988880725403     -1.16032824402294
  H   7.23347445368274     -2.53225332931918      0.69746378929270
  H   9.52035323542910     -2.07774223276953      0.56565808170073
  H   5.96884162629356     -0.87075279455748      1.94962073548802
  H   8.11590430781175      1.15156158043223      1.10234685868991
  H   6.68945957388682      1.53749511589541      2.06234943100012
  H   7.93251065448177      0.46534518176350      2.70554849394915
