36
Coordinates from ORCA-job dimer_004072/dimer_004072
  C   0.54582633660016      0.07814387868052     -0.29612861553953
  C   2.00825792918237     -0.34337214452514     -0.13794062030915
  C   2.58652076039130     -0.38269319185422      1.28300310061707
  N   1.73906318821694     -1.25222520669558      2.12685989265857
  C   1.92687092618034     -2.70364366680046      1.96940904820201
  C   2.41450254293388     -1.97928937096232      3.21555688968698
  N   2.78960956633662     -0.66413193404103     -1.08520047736639
  O   2.22423973638777     -0.59742542055812     -2.33591428219859
  H   0.48206043125524      1.14607855419489     -0.49658608921039
  H   0.08179450832212     -0.45072486415208     -1.12412709891869
  H   0.00833744123780     -0.13787718436860      0.62304554955369
  H   3.62911686349982     -0.71759588169926      1.24511096187704
  H   2.56109913530627      0.62217960134618      1.71086833142846
  H   1.02881546509082     -3.30910432532657      2.01949486050398
  H   2.66837772016390     -3.05963082287835      1.26321754372208
  H   3.48545319229227     -1.85250239948742      3.33913062213299
  H   1.86089066672037     -2.07591846389764      4.14318581261680
  H   2.93714561353632     -0.86522028875769     -2.95766853180622
  C   5.82508532507859      0.97505691892287     -0.00632723735530
  C   7.02963868936104      0.04811763701670      0.15180483533930
  C   6.96967019090101     -0.99516174683149      1.27766020828775
  N   5.71847435787787     -1.77035795670290      1.15701308711603
  C   5.64679699297669     -2.76106657797262      0.07248931332723
  C   5.75290840413341     -3.19519027291633      1.52790913131350
  N   8.07344967747546      0.03308970562615     -0.56915165514286
  O   8.10188456889209      0.97088380390812     -1.57100528843197
  H   5.55988818120249      1.40152492555131      0.95694401258791
  H   6.04135311238056      1.77459744760282     -0.70803580912554
  H   4.96988017216188      0.40290364980894     -0.36594117321855
  H   7.86528024122490     -1.61923458427671      1.22511335356164
  H   6.96144343140741     -0.49090112009199      2.24737081943286
  H   4.69546263043709     -2.82799938265830     -0.44567385780095
  H   6.51541868687173     -2.90376141082245     -0.56257457522187
  H   6.69128868439959     -3.62678719240441      1.86059527992903
  H   4.87892463613113     -3.58186121816332      2.04070491211192
  H   8.96973599343129      0.84708650618685     -2.01614025436103
