38
Coordinates from ORCA-job dimer_002127/dimer_002127
  C   1.10617532950027      1.68808238188716     -0.07909998521578
  C   1.35694844441621      0.19374591921787     -0.18646196840482
  C   1.30274343220393     -0.56230321053616     -1.25678493596755
  C   0.97819880699290     -0.14992536126731     -2.68236234197194
  C   1.58494287068465     -2.03213481315725     -0.95383568657581
  C   1.85720840918306     -2.06736388626255      0.58170560023527
  C   1.68933838449288     -0.59754298594917      1.07660170369607
  H   1.96332785178405      2.18881440820099      0.36260066883944
  H   0.91165378680281      2.13390980873884     -1.04687777413865
  H   0.24961674034823      1.88049385826514      0.56276001430852
  H   0.87729299555602      0.92437729324069     -2.77687391792343
  H   1.75949380345986     -0.48094141194991     -3.36093961121743
  H   0.04746954802527     -0.60984838666947     -3.00661048433326
  H   0.73525174404100     -2.65145608726197     -1.22707203835018
  H   2.43395012669092     -2.39308756486013     -1.52484396016943
  H   1.15922274870737     -2.72756708945335      1.08255225174988
  H   2.85457780268960     -2.43317299464689      0.79148149230470
  H   2.59465149749133     -0.22508067427225      1.54405651146227
  H   0.89294279974250     -0.50610075042114      1.80972460173912
  C   4.85387296929502      1.31270824274819      0.32302177159781
  C   5.15531022671668     -0.16859022044729      0.17780878809470
  C   5.08637436539477     -0.90028903849258     -0.90817380917433
  C   4.69052151774277     -0.45652935934125     -2.30600970362549
  C   5.50991560180268     -2.34800223339853     -0.67004153755710
  C   5.85230725222502     -2.40725140199890      0.85152900634102
  C   5.63745203941225     -0.95872818531488      1.39200123541866
  H   5.77646093180409      1.87752137220815      0.44014115156045
  H   4.32686685297289      1.69804410689036     -0.54163178708990
  H   4.24744794952973      1.49358584053073      1.20547742688938
  H   4.14662679419794      0.48056755142388     -2.28822165901519
  H   5.57439247988030     -0.32764350680352     -2.92757239735828
  H   4.06529381840235     -1.20625553202620     -2.77972569112263
  H   4.71411186824657     -3.03801032131082     -0.93331989870527
  H   6.36646389179279     -2.60656106831604     -1.28633314544369
  H   5.20831361674312     -3.11009018803155      1.36637548849424
  H   6.87338616684654     -2.73421251482149      1.00753749862188
  H   6.55634230682570     -0.53721211618692      1.78973859084725
  H   4.90602122735524     -0.93033788015433      2.19403653115959
