38
Coordinates from ORCA-job dimer_002103/dimer_002103
  C   2.15351964469964      0.93352801001559     -0.44343992605881
  C   1.73119116748241     -0.54923390962724     -0.25805419004019
  C   1.61591009737154     -1.28267447231899     -1.63084740209772
  C   1.31728256414588     -2.78744554791054     -1.41250508351313
  C   2.37266973152961     -3.38935243107256     -0.45054572039064
  C   2.43659268647843     -2.53524406323425      0.85309897235808
  O   2.70853242565968     -1.16885677204773      0.57125975449657
  H   3.10841365337749      0.98647275899077     -0.95523995409320
  H   1.41223230615206      1.46396634864445     -1.03246449352367
  H   2.24868378124512      1.41930404975810      0.52267638564649
  H   0.75246533617589     -0.58470529458157      0.23472412155092
  H   0.83346062879604     -0.81833708246471     -2.22137597944566
  H   2.54955830672994     -1.16841937278265     -2.17044747445843
  H   0.32688883620592     -2.90421253327014     -0.98484901253730
  H   1.32594164089341     -3.31441987940423     -2.36091991571561
  H   2.12744067098111     -4.41697905822496     -0.20248586617417
  H   3.34745724165409     -3.38431696928247     -0.92678347103072
  H   1.49271970956100     -2.63822614214847      1.40233277417289
  H   3.23984341204386     -2.89429645050296      1.50229892148463
  C   6.68647516293166      2.25931772792909      0.64700843658091
  C   6.07083611950234      0.83890930975471      0.52813156703845
  C   6.26328909788892      0.24995373794242     -0.90397794709162
  C   5.72330135611759     -1.20112774350023     -0.95581124598932
  C   6.36984148915889     -2.03756643962270      0.17684911528443
  C   6.17670754080496     -1.30325954453427      1.53986207581701
  O   6.70727933400835      0.01508297919277      1.49874560605203
  H   7.75072917447868      2.22061534253095      0.44039734131340
  H   6.21627476444333      2.93392223311608     -0.06085726459699
  H   6.54264748952368      2.64585037520868      1.65088361414446
  H   4.99560201594402      0.89061582593697      0.73635166947619
  H   5.74872577146004      0.87593264925478     -1.62449433330351
  H   7.31949546634185      0.26224423314023     -1.14881366688695
  H   4.64772314676103     -1.18824001806860     -0.81363648321782
  H   5.92926476724472     -1.64748305773795     -1.92249540913564
  H   5.92267544542384     -3.02466825204744      0.22716744480981
  H   7.43064659139838     -2.16104329999681     -0.01354138346584
  H   5.10848819134366     -1.28166284999458      1.78950918690685
  H   6.70254223403983     -1.83562439703930      2.33689723563385
