36
Coordinates from ORCA-job dimer_005325/dimer_005325
  C   -0.04775835572382      1.46394346749742      0.00724331681851
  N   0.22560732550817      0.03366130950991     -0.00538153294348
  C   -0.01148553443638     -0.72039333575195      1.21656708764199
  C   0.09947154949699     -0.65569466470921     -1.21778165242708
  C   -0.02991442928700     -2.00111799623875     -1.38437350332212
  N   -0.08348483551514     -2.25770994609571     -2.74520175273251
  C   0.00284815865008     -1.07788424481751     -3.42952818788468
  C   0.11465069017114     -0.06553432888488     -2.53069078256154
  H   0.55202641777156      1.96574979149855     -0.75151007866757
  H   -1.09968763511396      1.70407485413885     -0.17649721652899
  H   0.23132294301312      1.87542803768734      0.97605284195450
  H   -1.04821470833412     -1.05633440945968      1.31858562177743
  H   0.63207594393717     -1.60026975430362      1.24045656266552
  H   0.23434472697025     -0.10361321544512      2.07931513893441
  H   -0.08728165847470     -2.79433069290049     -0.66283887667822
  H   -0.17415122305759     -3.17339677537580     -3.16160764781972
  H   -0.02339060404445     -1.04440851545396     -4.50820222898924
  H   0.19626649121629      0.97824224959776     -2.76010103049369
  C   7.26562979908917      1.37477878524393      0.04429109248236
  N   7.78023153107967      0.01200195665051      0.01403478763682
  C   7.69718670177832     -0.76111464375961      1.24505044676670
  C   7.71106352538203     -0.70071713631453     -1.19098021525461
  C   7.74725707458106     -2.05347197528294     -1.34297677625642
  N   7.70227765637446     -2.33093309845678     -2.69991650811918
  C   7.62760142326758     -1.15743394263218     -3.39669395091031
  C   7.62950081651052     -0.12871515400982     -2.50989645152999
  H   7.67543191463636      1.94689515850072     -0.78641697534643
  H   6.17347999428304      1.42611275125357     -0.01044806093709
  H   7.58216158228003      1.85830894446632      0.96765804283048
  H   6.71853375880935     -1.22909239224986      1.39096753020715
  H   8.45146684258078     -1.54800694277452      1.23909898025117
  H   7.89684432658714     -0.11236357748943      2.09629047194833
  H   7.80144795895950     -2.83977084828638     -0.61368445543705
  H   7.71563585561682     -3.25569229556066     -3.10565083974958
  H   7.57709880038964     -1.14006540080015     -4.47485844612414
  H   7.57681517504677      0.91395798100868     -2.75232675120167
