38
Coordinates from ORCA-job dimer_005220/dimer_005220
  C   1.53798627112514      1.56277837255693     -1.13331726721887
  C   1.67165828475185      0.02469888532285     -0.97901860989180
  C   3.13022250754121     -0.38340758727717     -0.61637904748624
  C   3.27472573715279     -1.88209018054958     -0.44225596258656
  C   3.50839666740754     -2.62232935232559      0.67284860844589
  C   3.51548552161414     -4.00406525113544      0.28369496688788
  C   3.28822401223338     -4.04536266375831     -1.05324866024741
  N   3.14125681523539     -2.75120817929967     -1.49761979408662
  H   1.80344806102672      2.06242125435657     -0.20751591610052
  H   2.19551359330649      1.92776883637871     -1.91535770901120
  H   0.51929656869359      1.83661132769650     -1.38858958420054
  H   1.00138097879629     -0.33005147251135     -0.20210055317803
  H   1.37656737087796     -0.46414549578533     -1.90165160821465
  H   3.80516843861877     -0.02681557394088     -1.38976565428792
  H   3.42005126625728      0.10013716102528      0.31063021288023
  H   3.65033274358451     -2.23845621699358      1.66555776437896
  H   3.67220430654005     -4.84808767513190      0.93040016914094
  H   3.22645594039088     -4.88364817374654     -1.73020632169300
  H   2.98224324973699     -2.47778183581792     -2.45816697870045
  C   6.53589869940072      1.24518289182083      0.53154307592173
  C   6.76116434987520     -0.26033978884070      0.23177915913667
  C   6.95870457339047     -0.51247509759955     -1.29046086329927
  C   7.20613065728398     -1.97358399736787     -1.61502150742522
  C   8.15443250551800     -2.55050194107638     -2.39893812865137
  C   7.93082352686982     -3.96647709756870     -2.37624723969858
  C   6.85568965193384     -4.18830813592515     -1.57697791603868
  N   6.41362995476062     -2.97379356300052     -1.11229098906414
  H   7.39161297316786      1.83012688538611      0.21116058074350
  H   5.66024743373423      1.61224908674153      0.00710704590017
  H   6.39050716888285      1.40893854261654      1.59436218156110
  H   7.63415302955005     -0.61794807150940      0.76855194910636
  H   5.91029187950458     -0.83114372315700      0.58709646769854
  H   6.08397341168784     -0.15292398678008     -1.82650341965538
  H   7.80580098649869      0.06390633241130     -1.64779146910029
  H   8.92809456282512     -2.03509691730496     -2.93514047230422
  H   8.50705958003623     -4.71185279865820     -2.89209335040336
  H   6.36603137951149     -5.10636970158239     -1.29373719004245
  H   5.62400834067611     -2.84210709766863     -0.49298196921499
