38
Coordinates from ORCA-job dimer_001723/dimer_001723
  C   0.27821891616569      1.79764256244101     -0.22709430604954
  C   0.63498761841438      0.28748155592350     -0.22814293956020
  C   -0.53022425292751     -0.61872088493699      0.27107060024410
  O   -0.89209400471604     -0.35760067435964      1.61108876021053
  C   -1.71239874606743     -0.71131019960954     -0.77471631744243
  C   -1.15459799533980     -2.09464274797241     -1.24361832249218
  C   -0.23895633687864     -2.14115564145374      0.02327184657643
  H   1.08420461851173      2.37222112989753     -0.67154102617086
  H   -0.62570037350923      1.98809117395918     -0.79575089153378
  H   0.13364573596653      2.16674038621231      0.78240829407753
  H   0.89321959547687     -0.02222325132050     -1.23431414557104
  H   1.50573217397710      0.12176460450135      0.40134263968963
  H   -1.09936167801358      0.58827389811714      1.71861181785624
  H   -2.67324140667016     -0.80146927611748     -0.28075945690301
  H   -1.76495804474400      0.07143494543733     -1.52033051526160
  H   -1.87948763720688     -2.89412276271156     -1.33678558838147
  H   -0.59057318659032     -2.02719446225451     -2.16638142173053
  H   0.79847351002679     -2.41290677752715     -0.12644156742129
  H   -0.65866902177542     -2.74937037143160      0.81735006037186
  C   6.87534859948405      0.92037710805148     -0.02362346124251
  C   6.16175188070819     -0.44155688748237      0.18615370162544
  C   4.61285260725691     -0.34424666794411      0.04734404577002
  O   4.03430486041329      0.51874823713143      1.00621362239462
  C   4.14407384670651     -0.13710011249956     -1.44747661548653
  C   3.71769343856480     -1.64062602215764     -1.50365015710098
  C   3.92335499830074     -1.75426919286152      0.04280297333200
  H   7.95223354077674      0.78628040472825     -0.01798705162067
  H   6.59610437392539      1.36326920964567     -0.97379729577904
  H   6.62815488340139      1.61981284821776      0.76753653685149
  H   6.52288712741012     -1.15811790204396     -0.54391615815190
  H   6.39745978657002     -0.83251644678037      1.17147067259985
  H   4.41304295042330      1.41201166872047      0.91658719541785
  H   3.30360257104874      0.54305230938423     -1.51779261996757
  H   4.91000442087118      0.17039899650476     -2.14801384563739
  H   2.71176197117271     -1.83141910999325     -1.85780730382837
  H   4.40694319640632     -2.25572011112591     -2.07063814804275
  H   4.53497817763814     -2.57701187713509      0.39241887816108
  H   2.99307828482102     -1.74108765915447      0.59972951019702
