40
Coordinates from ORCA-job dimer_003069/dimer_003069
  C   1.66592179860092      1.75235254079720     -0.88535963860656
  C   1.96188661454659      0.37437618318221     -0.23699774901409
  C   0.66113052573074     -0.42228795887144      0.04629459909168
  C   0.98511116367105     -1.80437774043205      0.67266145979946
  N   -0.25746541269641     -2.57556015582562      0.87431231107379
  C   -0.78946799867082     -3.30092966003273     -0.28928652800816
  C   -0.15325281994270     -4.04402599824861      0.87686087747981
  H   2.58583011681691      2.29428070052796     -1.07855237013452
  H   1.14220857439836      1.62500766733115     -1.82673768658457
  H   1.04478618786862      2.35696079583275     -0.23305953061250
  H   2.59714136734645     -0.21547410627380     -0.89187886441872
  H   2.50627344310545      0.51723931239972      0.69034327493681
  H   0.01290044235076      0.13367908537239      0.71544440854929
  H   0.11682798780036     -0.57156338491972     -0.88016280540843
  H   1.69644117565282     -2.32864854690112      0.03095116099657
  H   1.45594035969064     -1.66589731658524      1.64554096871042
  H   -1.86748008203549     -3.30420829441029     -0.40405671274833
  H   -0.24052053712151     -3.26636151822438     -1.22429279823009
  H   0.81642384425899     -4.50183501805376      0.71344348285976
  H   -0.78209096317244     -4.57018540315420      1.58617995814019
  C   7.22103998706931      1.00384269978182      0.52483576656299
  C   6.40049385133752     -0.25927223691119      0.89732974657712
  C   5.62575779349428     -0.81759726881180     -0.32562941822475
  C   4.80318553774141     -2.07931766383993      0.05019655791417
  N   4.01353623011649     -2.52851647145815     -1.11249228412490
  C   4.70459937178262     -3.32560812333477     -2.13625693062460
  C   3.67589936147788     -3.95824093104609     -1.20969457204329
  H   7.75493305736502      1.38662723083639      1.38859199904411
  H   7.94532999571175      0.77381824910451     -0.24937822295448
  H   6.56698536993433      1.78598145267379      0.15388689759808
  H   7.06429347336325     -1.02464507875614      1.28646772332136
  H   5.69656182283444     -0.01666198845009      1.68698189481289
  H   4.95241432834804     -0.06024238042797     -0.71254260882614
  H   6.32131906639900     -1.06632113787247     -1.12024365718355
  H   5.47421587996005     -2.85853098418365      0.41884065778945
  H   4.10797434515244     -1.83680544567477      0.85390859231461
  H   4.44214419271111     -3.11778945414191     -3.16783278156560
  H   5.74667398017419     -3.58683216020635     -1.98474652904215
  H   4.03535129501784     -4.63807195633025     -0.44442101480071
  H   2.68790127180887     -4.19513153446100     -1.58839163441640
