38
Coordinates from ORCA-job dimer_004533/dimer_004533
  C   -0.03316496988642      1.46854311948994      0.01021954384740
  N   -0.05188912320962      0.01051582971250      0.00231893808584
  C   -0.02841397514194     -0.78738459402462     -1.11761255966808
  C   0.01223297237335     -2.08484126094998     -0.72743300558921
  C   0.04183792697426     -3.31489282419142     -1.61108821578840
  C   0.01986493817963     -2.09271763607287      0.70832099466388
  C   0.05880516706811     -3.33237606369590      1.57807980299259
  C   -0.01650127983881     -0.79961926594986      1.11311582896695
  H   0.99119282733531      1.85410506816537      0.00658366641678
  H   -0.55255333198008      1.84848796706099     -0.87107976768972
  H   -0.54258624237165      1.83872640668306      0.90143203640233
  H   -0.04675488361177     -0.35935004885606     -2.10597464582499
  H   0.94184730780104     -3.89801593504236     -1.43149847285096
  H   -0.81163000746181     -3.95742928487508     -1.40914816242430
  H   0.01919360133264     -3.03844132176774     -2.65963013503211
  H   0.95721893723627     -3.91304124997896      1.38316603156426
  H   0.04650854022448     -3.06745763064223      2.62976735332913
  H   -0.79637454543996     -3.97308921861059      1.37760660701141
  H   -0.02425263265099     -0.38245223958688      2.10625370444782
  C   7.36381921910607      1.47676552069497      0.01005062362186
  N   7.36430251438022      0.01863300503589      0.00228232005998
  C   7.39375581399260     -0.77919977742453     -1.11751653132286
  C   7.44398462947461     -2.07633365396073     -0.72723160669750
  C   7.47839267965258     -3.30564007912462     -1.61165844828821
  C   7.45138365151270     -2.08399876306104      0.70852315275263
  C   7.49480389192790     -3.32267869705802      1.57937041817594
  C   7.40524990972823     -0.79110882481839      1.11313442420253
  H   8.38234918154755      1.87759381643431      0.00640923218351
  H   6.83925855793313      1.84930156349131     -0.87136133419416
  H   6.84932305543158      1.83983609478248      0.90128572428253
  H   7.37131839147134     -0.35153044331939     -2.10596000166524
  H   8.36918975883075     -3.89798958107138     -1.41773430629126
  H   6.61539909747434     -3.94071854183412     -1.42646098785743
  H   7.47669296304850     -3.02759984070339     -2.66003703524161
  H   8.38374835582821     -3.91266877560455      1.37033408095242
  H   7.50341721480715     -3.05585787264165      2.63062669779802
  H   6.63013775895797     -3.95598344130536      1.39591881719288
  H   7.39302912796248     -0.37401752537909      2.10626521747535
