36
Coordinates from ORCA-job dimer_002345/dimer_002345
  C   3.63970069478765     -0.67882610395737      1.34124152110469
  O   3.41577248374523     -1.68249434247495      0.35870610101097
  C   2.62271918262352     -1.22050298903509     -0.73364589675357
  C   2.36255371036992     -2.41158908366592     -1.67597799252008
  N   1.54883412935309     -2.14558354311157     -2.88045790583772
  C   2.96894775584202     -2.51451440669688     -3.06580735396804
  C   3.91431282534645     -1.44695441706689     -3.63115727353996
  H   4.12804466752248      0.20730512718758      0.91361887995099
  H   2.70295501501864     -0.35875022605680      1.81541362458107
  H   4.29004218848443     -1.10079923664696      2.11314205012824
  H   1.66121503646790     -0.83222217251155     -0.37227379570654
  H   3.12872584420305     -0.40773147326503     -1.26855458490472
  H   2.20353205494505     -3.34152288678648     -1.14038844194883
  H   0.89875906433300     -2.90328044327735     -3.09676877376532
  H   3.18764087637189     -3.52321322430699     -3.40099736764292
  H   3.53071776700518     -0.45399374164028     -3.42712457063536
  H   4.89525725380081     -1.55017791376335     -3.17148964039434
  H   4.00630421436096     -1.56396537526693     -4.70640376182228
  C   5.82046354581510      2.01569463766720     -2.51615282007535
  O   5.76537243769906      0.97340565514507     -1.55174284040393
  C   6.89602716082355      0.10604581506745     -1.58052526851975
  C   6.61328904851681     -1.03586932696155     -0.59048224424453
  N   5.96956847298466     -2.24461035170236     -1.12747917212553
  C   7.34946787601135     -2.36579282661544     -0.62318902380590
  C   8.45532631788784     -2.66783006171057     -1.64516926101915
  H   6.68545618974702      2.67412279691926     -2.36304345016876
  H   5.86614860625290      1.62295567567647     -3.54027192839141
  H   4.90881613170999      2.61275578399810     -2.41510142408476
  H   7.05242922055061     -0.30632625227703     -2.58335845153300
  H   7.80879912748991      0.64473482013110     -1.29240485163441
  H   6.31058560897600     -0.67858325942965      0.38638903977463
  H   5.23915908207865     -2.61907389991888     -0.51568772860243
  H   7.50062076802504     -2.83519445931084      0.34339113750818
  H   8.19404201635000     -2.26586925554610     -2.61752616935948
  H   9.40038241522714     -2.23562354247022     -1.32858964326657
  H   8.58712920927094     -3.74115749631868     -1.74833071738340
