38
Coordinates from ORCA-job dimer_003096/dimer_003096
  C   0.05833333920132      1.08473181135176     -1.50125199292394
  C   0.33324608337697     -0.14612993731766     -0.63288002016063
  C   1.73171164351433     -0.74040658090291     -0.47216537594374
  C   2.96119261391740     -0.15066676421115     -1.17208021131005
  C   1.05927856065281     -0.03652690736306      0.70454471354860
  C   1.57513071053970      1.31334388313883      1.21966233369740
  O   0.46309775730267      2.03532936078523      1.75898330348707
  H   0.86824548584141      1.80068008210718     -1.45756367900365
  H   -0.08001883155701      0.79263885719256     -2.53815754348997
  H   -0.84556069735831      1.58181043053701     -1.16033279769812
  H   -0.47174801843337     -0.86522732056843     -0.65534440796637
  H   1.76726993573634     -1.81655371901733     -0.39347776410260
  H   2.82603793926508      0.89412710834421     -1.41757223296399
  H   3.83833032737044     -0.23218537268483     -0.53572499375616
  H   3.15526257655194     -0.68775859418170     -2.09529708421744
  H   0.69008478655117     -0.67050441068492      1.49602318154712
  H   2.34365094483764      1.12920613571030      1.98226164044095
  H   2.05951365152723      1.87071892741573      0.41243426756203
  H   0.78046191079512      2.88021565040486      2.12940199863284
  C   6.55624963227090      1.07858682942755     -1.89615827224119
  C   6.64539135660861     -0.19825392211328     -1.05578798707504
  C   7.88889831041876     -0.56494494365754     -0.24914929106936
  C   9.14794990417440      0.30879604795613     -0.24171150984854
  C   6.60260851192148     -0.15715548030980      0.46879012409216
  C   6.49358942754297      1.17535371354971      1.22227862415406
  O   5.12831955111586      1.59983447974134      1.17968268044350
  H   7.10373824080914      1.89885071890384     -1.45135125213359
  H   6.95819331957153      0.90336639614723     -2.88987318082990
  H   5.51753867710771      1.38167522482677     -1.99429706390437
  H   6.12522076421082     -1.03183180077418     -1.50345609203904
  H   8.11294449093074     -1.62054297837628     -0.20671104269210
  H   8.91727359230332      1.35945627366470     -0.35953211739728
  H   9.69180393050826      0.18286381612004      0.69014229637648
  H   9.80371048682601      0.01837930247285     -1.05757507233934
  H   6.05170938297119     -0.95173168141309      0.94947748246963
  H   6.83138847372790      1.02634252523745      2.25660587190679
  H   7.15389859813303      1.92345828098234      0.77369196244103
  H   5.03727562921399      2.42693255755849      1.68939450430680
