38
Coordinates from ORCA-job dimer_002176/dimer_002176
  C   1.42234760396044      1.86315364847037     -0.21810529287018
  C   0.53492382059742      0.64745689248836      0.14050998593854
  C   0.34993672493703     -0.29007724351172     -1.09240622343160
  O   1.49951989206975     -1.13466404690142     -1.11382122338173
  C   2.07238047017079     -1.22996803643566      0.19104555390612
  C   1.21046119296146     -0.33333904036382      1.14055994326610
  C   2.02707573532940      0.32006740397853      2.27710385495906
  H   2.38326407379498      1.53482188118201     -0.59863973334357
  H   0.94269945499574      2.46275036113517     -0.98423832902626
  H   1.59003919576552      2.49311030899502      0.64774526689480
  H   -0.42062772895403      0.99031713130463      0.51996871368404
  H   -0.56572176212901     -0.88480247390752     -0.98991799790790
  H   0.29548167092606      0.26091608370951     -2.03474044386792
  H   2.08267898149915     -2.27283179371323      0.52398439908203
  H   3.10767867259339     -0.87843829409421      0.15716209312818
  H   0.43244493026053     -0.94712717320150      1.58162928477717
  H   2.85212407641490      0.89981292726039      1.88149072128217
  H   1.39945291340012      0.97751199593018      2.86988997252641
  H   2.43359551680919     -0.44219955683212      2.93412608640697
  C   5.51645818400623      0.78750460348213     -0.39658290748414
  C   6.15778036321749     -0.58308846152106     -0.07532350294795
  C   7.37096912918943     -0.85945779440104     -1.01506491695075
  O   8.47714557368863     -0.18031002566306     -0.42342681792083
  C   8.27555427817836     -0.03649008793179      0.98346050359773
  C   6.86153756310935     -0.62412025567826      1.31105927474441
  C   6.13851643032884      0.11936176108346      2.45583219500124
  H   6.26022779784248      1.57537983803947     -0.34759241909261
  H   5.09676550272746      0.77801432985863     -1.39707183122334
  H   4.72141364324932      1.02163780480914      0.30057208076819
  H   5.41345911814780     -1.36682191905409     -0.15501526828864
  H   7.56662975584492     -1.93635425149354     -1.08377652187604
  H   7.21659304486275     -0.47451535502246     -2.02622854845388
  H   9.06302008751451     -0.56011199994372      1.53529598530017
  H   8.32951599343930      1.02388920228453      1.24942037906373
  H   6.97764330742742     -1.66487399783791      1.59355084068236
  H   6.05320855671817      1.17775544719213      2.24047549020682
  H   5.14185660265996     -0.28271165189653      2.60385569731757
  H   6.69014063244440      0.00737783820098      3.38383165553353
