38
Coordinates from ORCA-job dimer_002110/dimer_002110
  O   0.33179625581108      1.45497462015809     -0.02403437322575
  C   0.38211718378660      0.02984660333001     -0.02008396644340
  C   1.16632217884700     -0.52218721556423      1.21039246959795
  C   1.13734311070983     -2.07112222752176      1.21955152047780
  C   -0.32268441261238     -2.59093231887186      1.24045836107545
  C   -1.11778704797597     -2.03655974530533      0.03040099327454
  C   -1.08234775949793     -0.48703557711913      0.00617274823203
  H   1.24057402083657      1.80929203576358     -0.01759966216294
  H   0.86516221995646     -0.34391227887186     -0.93025564177204
  H   2.19035207796023     -0.16663498581317      1.18056270352406
  H   0.70970769631867     -0.13771770633377      2.11593896065488
  H   1.63853422720229     -2.44572873693189      0.33375091830503
  H   1.68024834968140     -2.44551391840203      2.08116913789814
  H   -0.32991554125204     -3.67563044598329      1.22273596126137
  H   -0.80278992585663     -2.27771578795503      2.16127224075160
  H   -0.68966384614231     -2.42202922831934     -0.88880651697045
  H   -2.14663737922021     -2.37784590744703      0.07497705819378
  H   -1.57358029263159     -0.08836034700494      0.88735654812357
  H   -1.60922590725286     -0.10749065557976     -0.86327701609985
  O   6.32286893027219      1.46142578151344      0.01424590140904
  C   6.43010357317999      0.03895684961493      0.01145113922370
  C   7.21252558379748     -0.49018950958005      1.25372270035841
  C   7.23015598082667     -2.04000833213061      1.26784435810595
  C   5.78814174184408     -2.60876686030594      1.25227191969128
  C   5.00520462880182     -2.07969141057018      0.02405054423131
  C   4.98581145200963     -0.53065601863838      0.01202862634127
  H   7.21556376243473      1.85277525996705      0.04116509650594
  H   6.94074158409726     -0.31051878871176     -0.89328249285596
  H   8.22768451316732     -0.10726197274302      1.24170096747097
  H   6.73104101933840     -0.11783709849636      2.15161237805198
  H   7.76993622824300     -2.40305481903986      0.39957031512293
  H   7.75917616352325     -2.39240103299411      2.14722919985091
  H   5.81896594472730     -3.69309201564253      1.23372891651252
  H   5.27422301751810     -2.31374117168224      2.16083060766821
  H   5.47114234010190     -2.44347763570745     -0.88555269363708
  H   3.98851967079921     -2.45666407490015      0.03953889304125
  H   4.47331301238356     -0.15947173877455      0.89245047155438
  H   4.45617964426582     -0.16131958740547     -0.85999729334279
