38
Coordinates from ORCA-job dimer_002860/dimer_002860
  C   1.28576287498408      1.04580378238499      1.20964851661748
  C   1.14105885631193     -0.00275296809555      0.07289232889596
  C   2.48995497770159     -0.23366694200263     -0.62941140715223
  O   3.43009384145916     -1.13785831751954     -0.00632360684340
  C   2.87455782466045     -1.53482803071497     -1.28046757459619
  C   1.96021786352777     -2.77152488318375     -1.31068984052573
  C   2.80062598596680     -4.07660266666583     -1.36940905833372
  H   2.00624209960608      0.70309995263644      1.94596570913253
  H   1.62823804503940      1.99615863958843      0.81344000186944
  H   0.33357213383535      1.20438488255788      1.70588731970474
  H   0.77558471175373     -0.93742361264327      0.48321516717231
  H   0.41655272251460      0.33972532585177     -0.66201378938166
  H   2.93938190653371      0.67195537163914     -1.03599361500849
  H   3.57425969110645     -1.48068033986084     -2.11304773474987
  H   1.32906734652195     -2.78419618751882     -0.42912263226047
  H   1.31011147935481     -2.70696353653680     -2.17990068443112
  H   3.42751457623062     -4.08964900486990     -2.25475474107609
  H   3.44071566427689     -4.15105568695424     -0.49613685316991
  H   2.15215494675928     -4.94660366304824     -1.39658808227232
  C   7.18831801329323      1.52174775977550     -1.06582034791897
  C   6.58769823678383      0.17393097435602     -0.58199188385584
  C   6.45966854499501     -0.82580500693567     -1.74424337423532
  O   7.57909972365798     -1.69965678764503     -2.02102585288047
  C   6.36463563009768     -2.30947377450400     -1.52411208174544
  C   6.38634906258216     -2.93841409206428     -0.12003084297311
  C   6.72650239868627     -4.45178770517061     -0.18986422461673
  H   8.17469459544410      1.36400985008490     -1.49068524310104
  H   6.55858664513205      1.97209539283661     -1.82575450099250
  H   7.27747937915332      2.21862161654323     -0.23864094110849
  H   7.21882621516839     -0.25179656702461      0.19024361352583
  H   5.60199472821704      0.32843279787943     -0.14788018861003
  H   5.97431219285925     -0.42160629377983     -2.63124400670632
  H   5.81547202845425     -2.88805416894903     -2.26495320917164
  H   7.12074680984617     -2.42559591632766      0.49147620949396
  H   5.41334206682209     -2.78779770891010      0.34347257436914
  H   5.98946265900533     -4.98282824521467     -0.78291108696026
  H   7.70088525206130     -4.59973556241323     -0.64472994834962
  H   6.74192226959434     -4.88566067758077      0.80476591224590
