38
Coordinates from ORCA-job dimer_002947/dimer_002947
  C   1.00261326394242      1.16673555730769      0.08137926309811
  O   1.64691019400568     -0.08616397947914      0.24626697220953
  C   2.01574054492697     -0.40013056422174      1.58498243422225
  C   0.78563819190772     -0.83613575012892      2.44045560002162
  C   0.55531115790314     -2.29925008041736      1.99403472096416
  C   1.99148912469876     -2.88573105597506      1.88263819267447
  C   2.91676858113320     -1.67564185074924      1.53764779028607
  H   1.61450481860901      1.99511802074762      0.46063778038261
  H   0.84318113278896      1.31831269898683     -0.99071199950058
  H   0.02698708368346      1.21029684963780      0.58012537912723
  H   2.54014406716572      0.44558055497744      2.03891185840014
  H   1.04889373964450     -0.79953672122909      3.49209113224285
  H   -0.07891226007371     -0.20294908249153      2.28752417012287
  H   -0.06716399697348     -2.85611121725883      2.68465690925371
  H   0.07335553550659     -2.30778718940439      1.02227013303705
  H   2.28731110409849     -3.32656020562568      2.82775166511418
  H   2.05009716317899     -3.66253930074395      1.12940337707726
  H   3.35908278154884     -1.76556356411568      0.55088911280634
  H   3.73028724151959     -1.58613329085588      2.24721963455223
  C   5.02861214441468      0.72947432825059     -0.03001389961664
  O   5.68705448883803     -0.51721441322880      0.12503877371621
  C   6.89249063850765     -0.47288722725300      0.87700240662618
  C   6.62169155561364     -0.37633333264851      2.42052470042070
  C   6.64850332274611     -1.84297711280933      2.95985305179078
  C   6.82650015496549     -2.75113634968016      1.70958108842438
  C   7.58440942395091     -1.85298255518882      0.70328832332765
  H   5.63372331077308      1.43993469697586     -0.60760851105594
  H   4.09161290073926      0.54452245584885     -0.56664215565634
  H   4.78223253224686      1.19824905358676      0.92948009321061
  H   7.52783245610417      0.34923119656116      0.53345761749434
  H   7.38649057885778      0.22502719002761      2.89847915007284
  H   5.66841363940185      0.10034755669995      2.61082451872578
  H   7.48471846608294     -1.97481321553357      3.63695805533227
  H   5.74668190543932     -2.08803390681765      3.50823610681519
  H   7.35788312366691     -3.66767113516513      1.93794164826624
  H   5.85827522656491     -3.01411048982899      1.29665186125161
  H   7.51453768768218     -2.20248679419869     -0.32071435222250
  H   8.63178697418870     -1.77558777455888      0.97511139698432
