38
Coordinates from ORCA-job dimer_001752/dimer_001752
  C   0.79091785021279      1.57709426113992     -0.04754346763390
  C   0.58870251681965      0.03626793431949     -0.08708499192766
  O   1.61290576650989     -0.51952544963022     -0.90523254905033
  C   1.47999117998264     -1.88792090228444     -1.16700990822632
  C   1.72045811462995     -2.82282504917208      0.03615331425704
  C   0.46325369174879     -2.30864696230586     -2.23739191684208
  C   1.96178186631169     -2.32455712904502     -2.54886049873253
  H   1.77363275355100      1.81338561097542      0.34833554669285
  H   0.71381562172027      1.99044956286753     -1.04838561974369
  H   0.03764229056661      2.04070933193163      0.58246321215888
  H   0.63425233058688     -0.37005772747921      0.93023900253622
  H   -0.40289744451245     -0.20327039153626     -0.48999702601798
  H   0.91913765604674     -2.74096724782597      0.76396466326234
  H   1.77504950629856     -3.85326000055095     -0.29821314344730
  H   2.65693225214426     -2.56121501025257      0.51998131004527
  H   -0.05140080391241     -3.24954688917741     -2.11689783277564
  H   -0.12871825106338     -1.53180455195367     -2.69720387972185
  H   2.34126930468570     -1.55101638127874     -3.20083302541705
  H   2.46504694385269     -3.27495950699501     -2.64224859313288
  C   6.70619105565130      1.48275710308860     -0.24811632254051
  C   6.65274166792594     -0.07049774502967     -0.26179403768088
  O   7.79426834429636     -0.54375755250091     -0.97023353968255
  C   7.83351438073743     -1.92886483435754     -1.16361508972824
  C   8.11713377008912     -2.76995276255437      0.09760294987498
  C   6.92947417881479     -2.52072361443305     -2.25358477489302
  C   8.43453416658187     -2.37756264358734     -2.49368304872455
  H   7.61240393589104      1.82067457786828      0.24487229319650
  H   6.70245260951211      1.86492505740688     -1.26416049892663
  H   5.84655476192143      1.88381534769066      0.28078889563675
  H   6.64419160076419     -0.44931327096382      0.76685932962458
  H   5.72790351566837     -0.41152040213499     -0.74244537171240
  H   7.30039522483313     -2.69699905069417      0.80897242331324
  H   8.24318602208506     -3.81307613710524     -0.17167045075739
  H   9.02777720660253     -2.42129201961668      0.57667205181238
  H   6.52202038514617     -3.50789834089268     -2.10076887619632
  H   6.27659941587934     -1.84523717341818     -2.78566441618823
  H   8.75752085101668     -1.60135359812370     -3.17225440223496
  H   9.04748576040286     -3.26596844238858     -2.50564371047607
