38
Coordinates from ORCA-job dimer_002175/dimer_002175
  C   1.53861899792267      1.54291248619389     -0.25306600186176
  C   0.77051205207155      0.24082114223093      0.07624212281305
  C   0.75624785273204     -0.72697314630057     -1.13748342564258
  C   2.08560446426213     -1.53435307633717     -0.95299114801605
  O   2.50115422986728     -1.34892642803223      0.40076713563207
  C   1.50469853216685     -0.64099128736432      1.13677198438057
  C   2.17645103384463      0.12441734469002      2.30481452726976
  H   2.56275637087203      1.32021222410999     -0.53059351320937
  H   1.06366485822049      2.05737910001910     -1.08141124822242
  H   1.55327533405259      2.21409920320863      0.59766213418915
  H   -0.23446523323312      0.47974443658789      0.40420809071047
  H   -0.09985401496894     -1.39047719954286     -1.08658890090018
  H   0.72450981307123     -0.20411946688685     -2.08556030639501
  H   1.93980665030424     -2.59878317407552     -1.16551017985748
  H   2.87210995607705     -1.16542651382090     -1.61964729696063
  H   0.77875933604010     -1.34989164039048      1.55225235986058
  H   2.93805278852887      0.79928021317589      1.93280422470998
  H   1.43499004324184      0.69729999728086      2.85292836305052
  H   2.64355623489228     -0.58096503137776      2.98479647258335
  C   5.51007995057879      1.63934150189586      0.05246791872998
  C   5.52004260117497      0.09815156376649      0.18654000550216
  C   6.24866476928631     -0.56814374089900     -1.01075811117901
  C   7.74447336214246     -0.59385692005719     -0.54192520147692
  O   7.74561636897679     -0.35891717469467      0.86627487981807
  C   6.41054428966148     -0.39387728868343      1.37042778930961
  C   6.33211069616679      0.44553508524755      2.67011449184273
  H   6.52316739705743      2.02522118156902      0.02356509086492
  H   5.00760754505350      1.93417884331633     -0.86185036629240
  H   4.99315505971699      2.10066496163942      0.88563355476685
  H   4.50739211894268     -0.27947135619557      0.29169111107590
  H   5.88174116198271     -1.57707559386192     -1.16199738992824
  H   6.12095790970579     -0.01828875747886     -1.93467458729129
  H   8.21603626824197     -1.55549393318383     -0.77101963464756
  H   8.33088917855312      0.18933696187047     -1.03263703038872
  H   6.12508631685707     -1.42722061619718      1.60003954564507
  H   6.68831967741057      1.45370089799664      2.49412706221521
  H   5.30834280719827      0.48844223484241      3.02712460668354
  H   6.95021322132590     -0.00701103426109      3.43900087061604
