38
Coordinates from ORCA-job dimer_006119/dimer_006119
  C   1.36546330621575      1.80216493528808      0.37115999798479
  C   1.12649453867660      0.28952335210258      0.20149367429099
  C   2.19416710204744     -0.50802897637876     -0.63364721821110
  O   2.64622910959007     -0.45526429006126     -1.74157122417038
  N   2.43705568035813     -1.33637378517878      0.45534624668248
  C   1.50084967522380     -0.69206897689734      1.38330067775197
  C   2.18819445820196     -0.03844572860008      2.60836236923136
  C   0.33204051463251     -1.60619498205829      1.83341634449087
  H   2.37924039501364      2.01355146293899      0.68980547221937
  H   1.19683195107986      2.30528939571379     -0.57741200198126
  H   0.68045077407857      2.21552081517975      1.10562650674718
  H   0.12098926392682      0.10940046136790     -0.16724761848610
  H   3.02117442429807     -2.14971779907198      0.56586588942845
  H   3.04585310459756      0.54845552433026      2.30253529483832
  H   1.49036805443792      0.60803947197929      3.13021838205066
  H   2.52408414329955     -0.80490243627307      3.29921004000358
  H   0.69339277784141     -2.38552236164202      2.49649409922869
  H   -0.41290044722486     -1.02326717544681      2.36530432853056
  H   -0.13788143075137     -2.07254347486225      0.97416361320223
  C   5.41823322257338      1.23028050089743     -0.65908999685597
  C   5.91834914537288     -0.19591683123430     -0.35904314452107
  C   7.36242231734627     -0.54516315299767     -0.87582775056799
  O   7.92804061983339     -0.56502039522752     -1.93134878405830
  N   7.76671263411440     -0.82558051622336      0.42505409562415
  C   6.49137218438900     -0.51873539637086      1.07968123832906
  C   6.56276607562724      0.67772844842396      2.06171058204598
  C   5.83146935893734     -1.74412024629727      1.76423965820799
  H   6.18723950290844      1.97068032885239     -0.46969028065967
  H   5.12456130309195      1.29727498819585     -1.70379345050370
  H   4.55335385935287      1.46524856784771     -0.04838940420940
  H   5.18044617663129     -0.92245152891982     -0.68636851955155
  H   8.64857160944774     -1.12910938548521      0.80615236874236
  H   7.07739702094651      1.51813166221185      1.61072194123736
  H   5.56414792148595      0.99080185592909      2.34591750478663
  H   7.09782853258857      0.38928453897699      2.96046104402748
  H   6.41070909652326     -2.05104392842176      2.62898031581710
  H   4.83158403720204     -1.48886196036007      2.09687916231045
  H   5.77358398608317     -2.57894498222744      1.07447054596622
