36
Coordinates from ORCA-job dimer_004336/dimer_004336
  C   -0.01938974431623      1.53618308794878      0.00637040574049
  C   0.00521864594080      0.00811965000258     -0.00507968242219
  C   0.05058819619744     -0.68688943165711     -1.20869991213739
  C   0.09028598917273     -2.07402353872849     -1.21330227774457
  C   0.08499629235500     -2.77716810072341     -0.01691125301554
  C   0.03984845176301     -2.09652063557976      1.19487616208747
  C   0.05298457139050     -2.86507208689858      2.51580908057224
  C   0.00022788406774     -0.70749787367124      1.18606857764243
  H   0.99109663964111      1.93316287659874     -0.07245744869306
  H   -0.59369050619376      1.91846198025273     -0.83152395285983
  H   -0.45571196701411      1.90832910071615      0.92701921766110
  H   0.05108530728126     -0.14272081719775     -2.14063882854654
  H   0.12230544852473     -2.60870517718466     -2.15199831810961
  H   0.11223117115209     -3.85598663353519     -0.02350983279517
  H   1.07411996150851     -3.10843157106161      2.80384122132138
  H   -0.38848757228090     -2.27382266237206      3.31079375734972
  H   -0.49833803738254     -3.79561221376313      2.42552784033163
  H   -0.03924282636807     -0.17415708077413      2.12265653839140
  C   7.57359182007580      1.53434948501986      0.00306480347552
  C   7.58216770658243      0.00605055101335     -0.00894883993518
  C   7.60131559988515     -0.68949702398933     -1.21294409654006
  C   7.62784212688008     -2.07695769696208     -1.21776272952318
  C   7.63616171465375     -2.77987373509802     -0.02123624691750
  C   7.61724414747178     -2.09864990432172      1.19089453217055
  C   7.64691917493848     -2.86655605821940      2.51201382158628
  C   7.58999317062435     -0.70932642208377      1.18233031362042
  H   8.58841364899237      1.91959432582178     -0.07804174298357
  H   7.00114371371766      1.92320151697191     -0.83297724422487
  H   7.14375855583410      1.91063823311307      0.92510718052777
  H   7.59116135778110     -0.14553479935573     -2.14494886939370
  H   7.63868093132521     -2.61205807138525     -2.15670772922727
  H   7.65308153080813     -3.85889734002030     -0.02800666759049
  H   8.67228515125287     -3.10529713417028      2.78857501518134
  H   7.21181605872331     -2.27635776910973      3.31130969346559
  H   7.09805051418432     -3.79906543629569      2.42824783705152
  H   7.57054517082972     -0.17550959330050      2.11928967448285
