38
Coordinates from ORCA-job dimer_002803/dimer_002803
  C   0.48225599308299      0.51271077049522      1.20740188046395
  O   0.56037927608977      0.30822261480058     -0.19494273499807
  C   1.73217496042962     -0.35031203327972     -0.61004312262615
  C   1.89792806213790     -1.87550479811592     -0.25216075708593
  C   2.36192155964377     -2.12361751163755     -1.72380882466101
  C   1.76676013008058     -0.73322441901186     -2.13178734553391
  C   0.35984157124010     -0.82800073318778     -2.75997684286854
  H   0.48823728288925     -0.43469657866452      1.76134973890974
  H   1.31165792929185      1.12857503562123      1.57857625517212
  H   -0.45761335045391      1.03164498891191      1.41874660355158
  H   2.63234739200141      0.20540562866674     -0.32455334949158
  H   2.60066082292040     -2.12221632390021      0.53313531169055
  H   0.94170937515579     -2.33920654004778     -0.03945152878867
  H   3.44178167471573     -2.13860162227730     -1.80226125085265
  H   1.94694796129698     -2.98868123786998     -2.22520208541303
  H   2.41002801271947     -0.11128108945009     -2.74123430819769
  H   -0.29179998630643     -1.44088789684132     -2.14769230467644
  H   -0.08524952409203      0.15822556959622     -2.84521196538478
  H   0.42033302188608     -1.27035467742979     -3.74926545057913
  C   5.23256090651151      0.57489629759444     -2.12533636910917
  O   5.22915372953483     -0.33895473050088     -1.03786430218010
  C   6.11892925664811     -1.41624060897684     -1.19667362597717
  C   7.66475495391537     -1.13356506348725     -1.08243903218004
  C   7.78248562925136     -2.38150840913042     -0.14661193681183
  C   6.22716715484529     -2.36659652203326      0.04857029951870
  C   5.78776807274935     -1.68597334153070      1.36250188393647
  H   6.21356816357885      1.04823502979909     -2.25952303202990
  H   4.95663232078094      0.08754348129479     -3.06939211183506
  H   4.49683530248783      1.35584900521152     -1.90936427541172
  H   5.89917129066757     -1.98304838503464     -2.10783277067469
  H   8.23837207571699     -1.14763293565601     -2.00119543746665
  H   7.85717857969177     -0.20679280026225     -0.55392256731292
  H   8.12931927881166     -3.26321503657248     -0.67286236297829
  H   8.37277870763436     -2.25283532049977      0.75202364361386
  H   5.73103936518847     -3.32342173571343     -0.06658734278323
  H   6.29823428843664     -0.73796893086631      1.49006106435598
  H   4.71999277762514     -1.49542364196863      1.35729595750954
  H   6.02394298119374     -2.32158749804477      2.21014239918608
