36
Coordinates from ORCA-job dimer_005125/dimer_005125
  C   -1.90833529327903      1.40781026594236     -0.05964310268435
  N   -2.22920015208197     -0.01192614057697      0.00422865214248
  C   -2.69488671328727     -0.80823363597757     -1.01789538843936
  N   -2.87911241473998     -2.02875901214911     -0.61891723900900
  C   -2.52457980717615     -2.06007409363904      0.72546323648177
  C   -2.60941666477667     -3.33608602062717      1.53843835317222
  C   -2.12351069524678     -0.82187243385154      1.11613871297400
  C   -1.63881882179986     -0.29343221650586      2.44697369908603
  H   -0.86043073893429      1.58164545664889      0.19934313310313
  H   -2.08145467464655      1.76653479058198     -1.07502435928437
  H   -2.53790996500785      1.98117714541001      0.62636138225724
  H   -2.86925858672444     -0.41713441815907     -2.01246271298355
  H   -1.96460372404662     -4.10309816056032      1.11541669236544
  H   -2.30798821033752     -3.16217856080603      2.56534728701998
  H   -3.62608667357186     -3.72235372817916      1.53832405021271
  H   -0.62816290417476      0.10254006792668      2.36943176678467
  H   -2.28482027162174      0.50157315701299      2.81431195107710
  H   -1.63415422362800     -1.09289208898725      3.18060291459997
  C   9.13780074229875      1.42958590237052      0.08410799095757
  N   9.52526863328249      0.02514926214445      0.07325576290984
  C   10.06279620413449     -0.68315466355612     -0.97797624794849
  N   10.29364187391114     -1.91613131071232     -0.64742175325106
  C   9.89718753149428     -2.04778380847070      0.67904950013813
  C   10.01865030232221     -3.36635039935313      1.41590701299975
  C   9.42315210570459     -0.85656155122378      1.12952912802595
  C   8.86969983597347     -0.43550676504626      2.47179905643396
  H   9.71450207305088      1.98738923160089      0.82705085782494
  H   9.32845126960977      1.85892502396087     -0.90024750711333
  H   8.07430474320836      1.53809069940079      0.31347519661491
  H   10.25019139558457     -0.22307152264484     -1.94012062677999
  H   11.05490317360164     -3.69553893330203      1.44273606069047
  H   9.66065640399163     -3.27507732965684      2.43529686227887
  H   9.43958051056037     -4.13900333653362      0.91527062573219
  H   9.46057926799848      0.36785976521917      2.90735302012428
  H   7.84217157947834     -0.08814197316893      2.38331592192939
  H   8.88505588887521     -1.27719866453180      3.15641410955633
