36
Coordinates from ORCA-job dimer_003079/dimer_003079
  O   1.62142388653510      1.67326101851057     -0.94211521807469
  C   1.94590441940542      0.36059809175598     -0.48417267050233
  C   0.62819282528865     -0.34034211046780     -0.04417922425723
  C   0.91744335452981     -1.78154628435132      0.45643391056086
  N   -0.34718282223883     -2.45251221206102      0.81194025866405
  C   -1.11322374053777     -3.06772410818478     -0.28233124740679
  C   -0.38178729523056     -3.92265181102609      0.74326807030374
  H   2.43324769578233      2.11599665421292     -1.25341149443849
  H   2.42047291141771     -0.24067549835107     -1.27090399446262
  H   2.64137428957235      0.39352618316458      0.36311676929359
  H   0.14774403593331      0.23549085680575      0.74097492797766
  H   -0.05294139614459     -0.37617236012818     -0.88891295288546
  H   1.47758586236746     -2.32420872937002     -0.30944815421052
  H   1.53730867670608     -1.74308558421713      1.35167009590072
  H   -2.19182938256459     -2.96999877048348     -0.22943638327993
  H   -0.71018123496892     -3.03348923723910     -1.28906472984655
  H   0.50536854389858     -4.45374339925728      0.41565393814079
  H   -0.94332399007512     -4.42733180406597      1.52146183608853
  O   6.86436044509518      0.99928221307391      0.14823659873485
  C   6.15565066374527     -0.08668502385385      0.74317007040057
  C   5.51966491661392     -0.92532376633123     -0.40267411685321
  C   4.71199554772100     -2.12668232589789      0.16004520047220
  N   4.00373873599933     -2.80416402740694     -0.94178604071053
  C   4.77385142701405     -3.76091158871509     -1.75111661720746
  C   3.69752205375975     -4.23618663278393     -0.78564941315239
  H   7.28095357692186      1.53798778248145      0.84694970117658
  H   6.82081875369374     -0.72624697293918      1.33740735342925
  H   5.36288197589620      0.26861751219393      1.41397824977147
  H   4.86279198179842     -0.29182021144322     -0.98963883185005
  H   6.30370349470352     -1.28301831456083     -1.06324565824911
  H   5.38133293396028     -2.80144099458925      0.69926142754838
  H   3.96556628192470     -1.77008667693782      0.86961290197616
  H   4.57912318801407     -3.75951174922758     -2.81807331193134
  H   5.80817763410070     -3.95772238407811     -1.48872873275785
  H   4.01665146548355     -4.74840126005675      0.11602329554648
  H   2.74012628387764     -4.56736647417392     -1.17219581390930
