38
Coordinates from ORCA-job dimer_002943/dimer_002943
  C   1.75747576279122      1.02877414722248      0.57002771327387
  C   2.01724373983113     -0.43573219486538      0.13409976117395
  C   2.34981742774168     -0.52186873760719     -1.37956366100053
  C   2.66850059562057     -1.96186983852001     -1.87812007330772
  C   2.27977060831353     -1.87853952027335     -3.37579527704643
  C   1.15352262116867     -0.78652171068533     -3.38450085135781
  O   1.21294794924274     -0.10379797194690     -2.13355700094620
  H   2.63985089459808      1.63714997940944      0.40286480773502
  H   0.94043016212582      1.44817800876324     -0.00865861887817
  H   1.49929563956032      1.07923642832951      1.62261573301859
  H   2.84169377193464     -0.85630566296367      0.70091479914963
  H   1.14057305558530     -1.04399382840530      0.33193434473351
  H   3.20565919390882      0.12555417895074     -1.60169384534276
  H   3.70976155351406     -2.21967899979638     -1.72848624038825
  H   2.04989682480439     -2.68384052591157     -1.35731324393593
  H   3.12590298337141     -1.54867356159912     -3.96802301633878
  H   1.93240624376473     -2.82462049532970     -3.77412586320783
  H   1.29261430103322     -0.08181077105019     -4.21155447005061
  H   0.16247818486278     -1.23911664700626     -3.49488940047089
  C   5.65370560522280      1.84484550939867     -0.72748115106447
  C   5.89596656423930      0.41997271199944     -0.16714814406130
  C   6.62203443761850     -0.48158112105833     -1.19872747071048
  C   6.84041407228245     -1.95259202456579     -0.71564858731053
  C   6.76908787761517     -2.78347536532808     -2.03131450096390
  C   6.26473571586276     -1.74561836136189     -3.09937035724114
  O   5.82963870092614     -0.59950801742179     -2.37670094996152
  H   6.59555036089437      2.32644259773639     -0.96809766140499
  H   5.05701102388172      1.79497966193948     -1.63287764324824
  H   5.13116455376647      2.45847081070870     -0.00085235790086
  H   6.49834437347860      0.46907382643574      0.73503070815353
  H   4.95102551086962     -0.04150458168527      0.09635875694650
  H   7.59217499405829     -0.03520893489194     -1.44470315729816
  H   7.78596749655618     -2.07212172586452     -0.19986918489307
  H   6.04727899840456     -2.23996561163801     -0.03543991614727
  H   7.73752398878837     -3.18522953083624     -2.30674715393819
  H   6.07992734288829     -3.61457105835559     -1.93607481339553
  H   7.07551945942380     -1.48682819805065     -3.79069432199185
  H   5.42886140944859     -2.12894486387526     -3.68966969038090
