40
Coordinates from ORCA-job dimer_003014/dimer_003014
  C   0.20696560686835      1.34557586745912      0.02904098800720
  C   0.05804664943178     -0.19673682937496      0.06495574443248
  C   -1.42186042547783     -0.67255021367333      0.01876997376779
  C   -1.48668678582189     -2.22425789660173      0.02788670378534
  N   -2.13885815075940     -0.17029100927482      1.20745293899649
  C   -2.85479502615264      1.10932619340619      1.10530067170700
  C   -3.60833210334273     -0.20991728306758      1.18286551573051
  H   1.25549432094489      1.61898248477330     -0.01883574764672
  H   -0.29393799350472      1.76371167603501     -0.83718325335098
  H   -0.21805997279551      1.79190490314850      0.92068545342119
  H   0.58297063831990     -0.63360080470713     -0.77814269541652
  H   0.51450379602736     -0.58471079360068      0.96936213707240
  H   -1.88220491631747     -0.30449777662198     -0.90054470298128
  H   -2.51547864689935     -2.56541061080064     -0.01218243038469
  H   -0.95297623528874     -2.63006246883118     -0.82479349239740
  H   -1.03360692579678     -2.60457585127845      0.93720056237594
  H   -2.81108038616998      1.75694509755676      1.97381919957920
  H   -2.86053281027417      1.63585663582966      0.15719889645740
  H   -4.11162073604904     -0.55385319640380      0.28582663941991
  H   -4.09794047590767     -0.49747850082449      2.10640768725564
  C   6.81686706622646      1.76389182602562      0.07223419783115
  C   7.06748417368141      0.23466025897650      0.02591387002722
  C   5.75746026762075     -0.59839696573936     -0.06815301172851
  C   6.08837937701664     -2.11404626110201     -0.14060856086926
  N   4.93261851758010     -0.35959696456566      1.13285612851442
  C   3.91390808307473      0.69921682741711      1.08168734079674
  C   3.52170729337844     -0.76993838007865      1.07952807419051
  H   7.75991160687511      2.30040446605370      0.05458533505053
  H   6.22828597026727      2.08568617475218     -0.77989850774455
  H   6.28820007106869      2.03861806265405      0.97782786831866
  H   7.68806804160213     -0.00739288830797     -0.83094103644634
  H   7.60596190193453     -0.07434702813887      0.91580987059712
  H   5.22117921645541     -0.30978768584915     -0.97456058053879
  H   5.17973401951995     -2.70142524012995     -0.21649389357387
  H   6.71115475258616     -2.32440768069051     -1.00347623180868
  H   6.61924994022731     -2.41663112527619      0.75569078453463
  H   3.78503646190775      1.29002525554948      1.98165714528424
  H   3.78059474078141      1.25618638481147      0.16104464191748
  H   3.12605311101987     -1.18286254081019      0.15837043229197
  H   3.11701996614142     -1.22059011869936      1.97870734352438
