36
Coordinates from ORCA-job dimer_003097/dimer_003097
  C   0.00280692098709      0.47199494480842     -0.23996791892590
  C   1.11756140087773     -0.31963998067875     -0.94364431843057
  C   2.27601353275080      0.36721314322560     -1.66005765094331
  C   2.39565230092260      1.90298619608369     -1.71874561786718
  O   3.77678320777401      2.21469874988173     -1.91199908816935
  N   2.48877930008712     -0.39981533201150     -0.42926881175731
  C   2.88722255865518      0.23896701546943      0.82973571418837
  H   0.36384757805375      1.38536387079704      0.21479515063521
  H   -0.77204279273834      0.73224679569107     -0.95603062594422
  H   -0.44707370060273     -0.13870830918504      0.53837884334930
  H   0.76278393130719     -1.24883069963901     -1.37844578103390
  H   2.67194121435312     -0.10446798242821     -2.55308014823147
  H   1.78010056858631      2.26675609010368     -2.55315289107581
  H   2.00587458750095      2.36300531948383     -0.80548040054153
  H   3.88232242257199      3.18188893787852     -1.98947217196974
  H   2.42200260373276      1.20583211400551      1.02340975941772
  H   2.63441024871305     -0.43343009532480      1.65100010568347
  H   3.96985599890333      0.37510430221671      0.82312742156280
  C   6.51623948554587      1.94353666059105      0.17200896656489
  C   7.03232563029735      0.57079661904124      0.63299804490448
  C   6.67532321581528     -0.73674931371752     -0.07181695519169
  C   5.76717808495971     -0.78186849755880     -1.31842138786109
  O   6.35414027069588     -1.70336442880841     -2.24447369900916
  N   8.03625372083514     -0.19115178116741     -0.11900523770511
  C   8.60251060667977      0.31726587464198     -1.37449250588029
  H   6.33987108134208      1.98518261208316     -0.89524587586545
  H   5.58202676925346      2.17899618113638      0.67235272966088
  H   7.24170719606540      2.71050285734680      0.42943630837088
  H   7.16898301243904      0.51444726287737      1.70781196849349
  H   6.58321608574494     -1.62558933151292      0.54300223823129
  H   4.76612423535372     -1.10851076938424     -1.00412819138953
  H   5.65013934858353      0.21172350043797     -1.76369266056705
  H   5.73131165413800     -1.84869317515924     -2.98127313234094
  H   7.89587557786000      0.84883594323452     -2.01270227581115
  H   9.42755255422833      0.99006389600248     -1.13673234150795
  H   8.99786658772527     -0.52874719046247     -1.93920756304287
