36
Coordinates from ORCA-job dimer_002371/dimer_002371
  C   1.57076765208507     -2.06112273377117     -1.31618544492514
  C   0.80151798569915     -2.12222374940024      0.04434094223337
  O   1.53707208898758     -2.80252465380001      1.04725817177609
  C   0.42863178899324     -0.68175143854873      0.48579296865472
  C   -0.96685322318217     -0.13869438605320      0.21256302923759
  N   -0.51392715856456     -0.43189875986604      1.57971564961502
  C   -1.11070241470536     -1.55680644720626      2.31797613471065
  H   1.83582317636406     -3.06322258449732     -1.63628064160695
  H   0.95162793594788     -1.60099258483260     -2.07934085060169
  H   2.47741374529559     -1.47563479300401     -1.20964687417028
  H   -0.11720936549807     -2.69144031707682     -0.11123339398881
  H   2.37140544313669     -2.30856971131553      1.22048583298740
  H   1.25903422336186      0.01297265154259      0.45002556044386
  H   -1.10709256987295      0.90690530898334     -0.03717687233443
  H   -1.67616697533432     -0.80825899281641     -0.26128787693238
  H   -1.44565193613570     -2.37928012361820      1.68316771975189
  H   -0.37336347302619     -1.94690692599937      3.02144787444242
  H   -1.96724884595742     -1.18513070944122      2.88216105605403
  C   7.08977919556486     -2.78850723162776     -0.84603822375724
  C   6.06681283471420     -1.68448266172264     -0.43184204401363
  O   5.51998198233527     -1.00539941979821     -1.56052054224106
  C   4.94593566633871     -2.30478788343304      0.43767850133870
  C   5.03311140285283     -2.25982248176084      1.95527258964497
  N   4.03598235691646     -1.46370446303661      1.22432461602706
  C   4.14917580308200      0.00507082628002      1.19243634534844
  H   7.87918704854312     -2.35519027138526     -1.45282798080080
  H   7.53131534084637     -3.23847779474508      0.03786014053115
  H   6.59811236012973     -3.56910248079265     -1.41787164368378
  H   6.59340384815055     -0.92331391782980      0.14815447431739
  H   5.07358682519482     -1.65185005648945     -2.13917265036210
  H   4.46713587451291     -3.16815155242698     -0.01293987445735
  H   4.65305593099420     -3.08847165100254      2.54501222532188
  H   5.88341842835167     -1.74828218699738      2.39459418217894
  H   5.17104094211434      0.36780980435367      1.31689694388641
  H   3.76881271708732      0.37243440482565      0.23746748072629
  H   3.53457136467587      0.41737796831034      1.99541647464730
