36
Coordinates from ORCA-job dimer_004829/dimer_004829
  C   0.06367872139398      1.06177999004184     -0.38321783709435
  C   0.89301845341834     -0.17236194396832      0.07450252275419
  C   2.07207434453027     -0.42811044154549     -0.84546015660512
  C   3.39866549353338     -0.51197612406668     -0.63185216008496
  C   4.00607510422187     -0.76990878661628     -1.92397334000687
  C   2.99505263257313     -0.81652752713208     -2.81115707384429
  C   2.95935240945363     -1.04483813068197     -4.30968686146189
  O   1.81273101101323     -0.61074268680448     -2.16772899950280
  H   0.67883967823203      1.95578436663775     -0.38044262218347
  H   -0.31167351581347      0.90678506912372     -1.39004502013995
  H   -0.77920206998046      1.21837332752940      0.28255342679059
  H   1.27449138449212     -0.02022195454227      1.08019317630562
  H   0.25198946598861     -1.05241243919946      0.09702772777512
  H   3.90823447177046     -0.40738670866922      0.30853009180728
  H   5.05547999788234     -0.89196710303598     -2.13540253257059
  H   2.37625878790767     -1.93156352307593     -4.55334318028604
  H   2.51155907895268     -0.19400002418404     -4.82066473684438
  H   3.97308045419793     -1.17970215972974     -4.67595234940141
  C   6.67375305373194      1.40575535704731     -0.48596515861196
  C   7.29978660606915      0.01445101062486     -0.17980375602306
  C   8.02956170006951     -0.55149420807493     -1.38407852909032
  C   9.30842014333625     -0.91366133193199     -1.59654437691899
  C   9.37944123900993     -1.37737634737937     -2.97074266543243
  C   8.13709345848569     -1.25572876271201     -3.47499792078950
  C   7.53793018100049     -1.56474103924759     -4.83333260765747
  O   7.30867145146171     -0.75342462057459     -2.52007902502359
  H   7.44762729999873      2.12264147346811     -0.74067658087891
  H   5.98272957135141      1.33133370813314     -1.31990198717332
  H   6.13249955875612      1.77306319746623      0.38018357974127
  H   8.00836975611420      0.09068462859833      0.64012810716070
  H   6.51640472377082     -0.67730055000341      0.12592406533018
  H   10.11838547193016     -0.87003329611385     -0.89071505413199
  H   10.25186680682029     -1.74437852156369     -3.48127190750173
  H   6.76414294199448     -2.32667460225487     -4.74915728165651
  H   7.09067347082341     -0.67248574019593     -5.26896527748385
  H   8.31478466150665     -1.92807555536643     -5.50004969926468
