38
Coordinates from ORCA-job dimer_002086/dimer_002086
  C   1.17422759593018      1.85268634469984     -0.16498236631009
  C   1.31601138223711      0.33143739093384     -0.17814712855370
  C   1.55347313967434     -0.33803948877525     -1.28134835649467
  C   1.70310986548069     -1.85456394213949     -1.35625291862380
  C   1.92554663776477     -2.47286350823817      0.04440798925834
  C   0.91805152538521     -1.86793107553777      1.04952133465337
  C   1.16080501337980     -0.34600131351251      1.18313497146788
  H   1.86913704475895      2.29558446380376      0.54314671299369
  H   1.36750606258380      2.27126351816412     -1.14595202782928
  H   0.17019923203640      2.13750248387915      0.13989119150574
  H   1.64733879125538      0.19001548496863     -2.21829241167181
  H   0.81115411760751     -2.28203940093943     -1.80912392180754
  H   2.53325349830164     -2.10447871020258     -2.00967943316890
  H   1.81617453122448     -3.55061730423335     -0.00265955945419
  H   2.93445886803526     -2.25684934354062      0.37637124629013
  H   -0.09235232940770     -2.04477222722647      0.69775735160018
  H   1.01443588034252     -2.34455116714534      2.01891185958654
  H   2.05829209998989     -0.16731849659971      1.76984213274272
  H   0.34000980516506      0.11810684528007      1.72092383606330
  C   4.75403062719400      1.08291620513459      0.35928423052302
  C   5.21657384019788     -0.35818605696854      0.15662087600649
  C   5.07658063190734     -0.97948477515556     -0.99057080089312
  C   5.55025130506462     -2.40431990938630     -1.26320250020814
  C   6.55246147340000     -2.88233837311491     -0.18485392183703
  C   6.00742772018048     -2.53986031145719      1.22153464921801
  C   5.86960640599839     -1.00650630463298      1.37709335918585
  H   5.60006120927265      1.72107083518069      0.60321737766607
  H   4.27528674511561      1.46651042870814     -0.53408204854244
  H   4.04852096808569      1.14558881852835      1.18235346225015
  H   4.59738061051616     -0.47413218107461     -1.81528941906394
  H   4.69334905902312     -3.07360345495167     -1.28675688104634
  H   6.00923427091005     -2.45123843071005     -2.24641591660522
  H   6.71892713743801     -3.94994729411841     -0.27782973412687
  H   7.50656697081078     -2.38802572042276     -0.33079202039101
  H   5.03772343363827     -3.00685700082446      1.35272574413122
  H   6.66430922939649     -2.93190604463527      1.99032115629323
  H   6.84973358748108     -0.56152874887425      1.53090475043053
  H   5.28285101262354     -0.77309423486337      2.26013513476161
