42
Coordinates from ORCA-job dimer_003012/dimer_003012
  C   0.78714858393429      1.61455654969930     -0.18226018238634
  C   0.81099063123189      0.06370272211666     -0.19477028270293
  C   1.78350518621846     -0.51970097731472     -1.25695969788856
  C   3.25497648800876     -0.10756244747923     -0.99154222188167
  C   1.67077354726856     -2.04895856833877     -1.28050932284774
  C   0.57176498243762     -2.70746602088493     -2.10305940032210
  C   2.02881009371337     -2.80382476420248     -2.55333055564748
  H   1.74441930831874      2.01714530894968      0.12763321395976
  H   0.56023517858793      2.00063588350468     -1.17014810872340
  H   0.03111016083987      1.97772037749904      0.50607460625311
  H   1.09363437373036     -0.30538128243582      0.78521724038789
  H   -0.18625511042655     -0.31087243414324     -0.40058612323389
  H   1.49027802508580     -0.14492633979867     -2.23137162142001
  H   3.90683546884204     -0.58765161133971     -1.71247224309120
  H   3.38668488928034      0.96482069862319     -1.07189176891254
  H   3.55887370586124     -0.41760325436409      0.00186963956704
  H   1.92890327659080     -2.52479574212018     -0.34723737434928
  H   0.09711217298415     -3.59612371866002     -1.71644763993820
  H   -0.09021180880867     -2.06646906924711     -2.66422752804955
  H   2.33259021488881     -2.22653994357718     -3.41265394573408
  H   2.52831202598311     -3.75651467634588     -2.46744991047816
  C   6.83183089744479      1.46399685276307      0.04716128749621
  C   6.95313262512947     -0.07327879004392     -0.11644929115446
  C   7.90643969747661     -0.48877450613497     -1.27097287280169
  C   9.37255387509086     -0.06130203767666     -1.00054877763471
  C   7.82729854570964     -2.00564772197101     -1.48142399830926
  C   6.68888128408452     -2.58125160155132     -2.31283989866322
  C   8.11624412849936     -2.58779047178821     -2.85835655590999
  H   7.77201224626185      1.89903844417148      0.36568095287866
  H   6.54502229286473      1.92530089960513     -0.89156993683805
  H   6.07877035227869      1.70959696310620      0.78880721215643
  H   7.30166603223113     -0.51520515292897      0.81055394120577
  H   5.97446405751240     -0.49090063922192     -0.32203711346112
  H   7.56819452714046     -0.00615047673403     -2.18118624780681
  H   10.01682470466396     -0.40603323063988     -1.80189960441485
  H   9.45873674107788      1.01670569613663     -0.93206865794373
  H   9.72540148346150     -0.49291230926184     -0.07070733500422
  H   8.14963587136367     -2.58783208572039     -0.63220227205688
  H   6.25094119065258     -3.52099664607537     -2.01374659218784
  H   5.98469013778834     -1.88971303368656     -2.74814309004473
  H   8.35663043683618     -1.90122508487469     -3.65513607817439
  H   8.63401147785999     -3.53232975761321     -2.92322384389170
