38
Coordinates from ORCA-job dimer_002335/dimer_002335
  C   1.78841534022990      1.05099984489108     -0.36923736321207
  C   1.77801575676393     -0.40931813742237      0.15674301284251
  C   2.26626863199609     -0.48998933247555      1.62884895464783
  C   2.30344211010705     -1.93251799797914      2.14142872085740
  C   3.40561686663313     -2.86214685390811      1.63674716613134
  C   3.43217696381224     -2.35104698039419      3.08838982991678
  O   4.35090927131244     -1.37215411921398      3.47096598064221
  H   2.79097146416496      1.46295628664620     -0.32558696889129
  H   1.44551843829508      1.09633092691935     -1.39764222396021
  H   1.14054650710422      1.67812862917939      0.23386842122866
  H   0.77566055179220     -0.81839321265495      0.08456351343337
  H   2.41839451503151     -1.02701050121354     -0.46380830126044
  H   3.25950150723009     -0.06225211259874      1.71264737757643
  H   1.61402088310379      0.10147972034377      2.26365259714488
  H   1.33628410188931     -2.37949444854072      2.31389622580625
  H   3.17412532824228     -3.90042472850415      1.45867052749276
  H   4.12669617840825     -2.44503458870948      0.95317666237547
  H   3.17112532345527     -3.08020386204962      3.85529100121556
  H   5.26340139656588     -1.73233971360684      3.41912191230528
  C   6.60568949591878      1.94607890398919      0.17053700936592
  C   7.01927312484450      0.48796550010002     -0.16215304098390
  C   6.54679807349043     -0.49892956089896      0.93932806060095
  C   6.92917291300581     -1.94201163157102      0.59653055920524
  C   8.32745233627556     -2.44742930665268      0.94692350633380
  C   7.10078284391271     -2.96975978986804      1.71397107502951
  O   6.86972521762872     -2.53362432273110      3.02917609155425
  H   7.04265507418912      2.26081869942288      1.11235229102343
  H   6.93632230993889      2.62918319340211     -0.60501985593432
  H   5.52699322873235      2.02409656163612      0.25781159339711
  H   6.59103055209409      0.19503725256325     -1.11524859008058
  H   8.09769470740961      0.42253510371564     -0.26346518300315
  H   6.98556855861042     -0.22438472727094      1.89269083295601
  H   5.46961744477356     -0.42637874536572      1.05554811064004
  H   6.49696307906255     -2.31549401309535     -0.32051142358941
  H   8.83386475313431     -3.11812606279523      0.26897351039522
  H   8.97884266603816     -1.76112482943554      1.46690213825359
  H   6.77901234504006     -3.98927186637009      1.50226091219997
  H   7.46202913976118     -2.99710317748268      3.65041335634332
