40
Coordinates from ORCA-job dimer_003101/dimer_003101
  C   -4.01990816349195      0.96422699129930      1.24921494443180
  C   -3.67830038797910      1.50013793060751     -0.16749332106743
  C   -2.64815093534330      0.58893108949545     -0.85138942700778
  C   -3.05767172936525     -0.67543333097126     -1.59549646532179
  C   -4.52672015308430     -1.10688790951789     -1.72189984641498
  N   -2.50876086267370      0.48617402495201     -2.30812546716225
  C   -3.33083057995466      1.28599675315423     -3.22244522938001
  H   -4.72137942348671      1.62253965959836      1.75164009649495
  H   -4.46186730007897     -0.02424872867183      1.18293505494207
  H   -3.12235511173232      0.89375872344702      1.85487265009673
  H   -4.58432143689586      1.57833448658214     -0.75421528522760
  H   -3.26144814915436      2.50071788061101     -0.09057491658137
  H   -1.70225063196108      0.55932248064723     -0.32284018420989
  H   -2.37293196308085     -1.51554712989040     -1.54929347196808
  H   -5.21067959677502     -0.27046059132723     -1.65944754493228
  H   -4.68871708225698     -1.61103709515172     -2.67081152382517
  H   -4.77199925809799     -1.80235692768535     -0.92437869425686
  H   -4.37460769466756      1.39727450913086     -2.92673365615478
  H   -2.89178329779567      2.28125595788536     -3.30583434694815
  H   -3.30547306778718      0.82118238413944     -4.20917287847453
  C   0.18317722670853      2.75932129757492     -1.45670694600381
  C   1.51393985352672      2.04930629734889     -1.08690105746358
  C   1.24391311749704      0.80570004740251     -0.22484430503010
  C   0.85186763009235     -0.52657856825822     -0.85141238355408
  C   0.70969537060059     -0.69044591543109     -2.37205253769473
  N   2.14460288020781     -0.35206151310772     -0.17635543882735
  C   3.41124014732859     -0.37861834953810     -0.91502925400686
  H   0.37559923656323      3.65398558837255     -2.03951705406539
  H   -0.45014954040420      2.09434455601725     -2.03628559450570
  H   -0.35679875465092      3.04484397047252     -0.56070779615128
  H   2.04366865621262      1.78521245341972     -1.99277524243426
  H   2.15289548881067      2.73000594613218     -0.53125451484398
  H   0.79846284224021      1.05013430248008      0.73282668166231
  H   0.15662718842321     -1.14504273586814     -0.29459977061223
  H   1.41470082887066     -0.07902973827407     -2.91870549884885
  H   0.86899345508035     -1.72721020857975     -2.65241301881537
  H   -0.29655127786665     -0.39807576477206     -2.67054808616465
  H   3.37537489279454      0.06301407116174     -1.91153895164070
  H   4.16536810032670      0.15316624189925     -0.33327832648274
  H   3.73186748330099     -1.41649513678682     -1.01558739154900
