38
Coordinates from ORCA-job dimer_001355/dimer_001355
  C   0.90179398293868      1.58594746276176      0.19913471209063
  C   0.96806747327006      0.03133101145133      0.23090066046655
  O   -0.28689019721343     -0.52490347073267      0.62124694190958
  C   1.44795594968964     -0.59113367830479     -1.11489671842560
  C   1.84131167524635     -2.04191964210441     -0.73031887315625
  C   2.29024459601333     -1.97472290645313      0.76665428877750
  C   2.01971876188138     -0.51569763902144      1.23342266924001
  H   1.86904998771678      1.99847446828343     -0.06426311454073
  H   0.17607803663303      1.92574073735341     -0.53238236836863
  H   0.61408238215718      1.96686768073263      1.17356658211025
  H   -0.96448152957380     -0.27741642092616     -0.03401243046718
  H   0.68629724938453     -0.54852613855171     -1.88427678692477
  H   2.31570670269132     -0.04543403320676     -1.46580815833557
  H   0.98643507287561     -2.69990872140220     -0.83547993666891
  H   2.63269242160131     -2.42098269747790     -1.36611148503014
  H   1.71962470048319     -2.67578391858530      1.36454750575002
  H   3.33971884511081     -2.22575005965346      0.86917346326373
  H   2.92183292299769      0.07894304031653      1.16040059209423
  H   1.65262621740432     -0.46059481572789      2.25161646620921
  C   5.34945501178190      1.61248654750094     -0.45282343195262
  C   5.87636461400055      0.15055358672953     -0.37694325605888
  O   4.96314044863407     -0.75519756373862     -0.99366222906564
  C   7.30386493296786     -0.02187125458616     -0.98055285643865
  C   7.79373656645984     -1.38185178126979     -0.40915843989616
  C   6.99328114292643     -1.60217128214764      0.91865951455009
  C   6.07798106476137     -0.35672877548581      1.07628077122019
  H   6.03341717388718      2.28644338529495      0.05108423916857
  H   5.25210908187743      1.93386514598694     -1.48468262892488
  H   4.37796315212912      1.68387606819940      0.02441383123681
  H   4.89701924537518     -0.54741801607342     -1.94338325136862
  H   7.29596589228289     -0.00050175881147     -2.06393616983283
  H   7.93671764619041      0.78848872557730     -0.63766285064909
  H   7.58256159441925     -2.18200119833146     -1.10903596475673
  H   8.86378574850327     -1.37476223580455     -0.23748084743347
  H   6.38899481155849     -2.49916209451549      0.84554572633546
  H   7.65247728229850     -1.72018878183779      1.77078995179976
  H   6.57078054635171      0.41335132116849      1.65841477015940
  H   5.13182779228580     -0.59015629660655      1.54976111191340
