42
Coordinates from ORCA-job dimer_001974/dimer_001974
  C   1.33959791746808      1.41341443125461      0.54622414764438
  C   1.11275967673537     -0.09166695401134      0.24440578606728
  C   1.65651243778612     -0.47381105027644     -1.14750574724527
  C   3.20673423270341     -0.40346236411136     -1.34343657644612
  C   3.16662417583156     -1.80873712106172     -2.03365750329073
  C   4.21571373813293     -2.85006464598276     -1.59221506439936
  C   1.70185993606285     -1.99521318767099     -1.51189098098113
  H   2.39704714091880      1.65193930757799      0.50804281241963
  H   0.82821583423497      2.02963412520581     -0.18543765903005
  H   0.96633714861878      1.67284818649827      1.53140128451892
  H   1.60810338785183     -0.69328719916808      0.99892859814530
  H   0.05296078605206     -0.32173332593853      0.29572444537260
  H   1.14086720806878      0.09611942159291     -1.91098807599314
  H   3.58934406116618      0.41841650794910     -1.93562406854658
  H   3.73360743256548     -0.43005938645603     -0.39814792345762
  H   3.18066558293601     -1.70924681021647     -3.11284465971968
  H   4.24234776047648     -2.93198897431687     -0.51135654279425
  H   3.97794454881470     -3.82666457481114     -2.00205383125190
  H   5.20525507804722     -2.57006832334255     -1.93886245616781
  H   1.65712434417478     -2.62782814601469     -0.63415003789131
  H   0.97197831130901     -2.34387236399937     -2.23191228262001
  C   7.23217631720850      1.44788090642983     -0.21181726573624
  C   7.09256501645162     -0.08994132445116     -0.36276032134362
  C   8.00269390750991     -0.63206374606952     -1.48386317560899
  C   9.54500927584575     -0.55379262960786     -1.23019954822800
  C   9.68029769822993     -2.05685262968762     -1.65014720728969
  C   10.48107531333905     -2.97821308784043     -0.70645892854645
  C   8.12008902256984     -2.18721630139918     -1.61555817197298
  H   8.25897263401017      1.71677660394686      0.01121865536543
  H   6.94454450937883      1.94731919914447     -1.13072248641542
  H   6.60059407854142      1.81783413261262      0.58906724009967
  H   7.35255345891490     -0.57346408065277      0.57264084965110
  H   6.05920413781024     -0.34196352011370     -0.57787803602447
  H   7.73321191569443     -0.17287540828476     -2.42726839880237
  H   10.09637524873605      0.16205645083990     -1.82696403191564
  H   9.78281436478065     -0.39374439084316     -0.18619640022723
  H   10.05842230873322     -2.14811598624194     -2.66171454135045
  H   10.11106565309688     -2.89436629049159      0.30940556298522
  H   10.39290663292591     -4.01476229685675     -1.01635553959622
  H   11.53273569460919     -2.70950382681738     -0.70903934250707
  H   7.76573356745174     -2.70569873574674     -0.73344999726606
  H   7.65881050420555     -2.63118659056935     -2.48868457960353
