38
Coordinates from ORCA-job dimer_002950/dimer_002950
  O   0.14073873492044      1.44716702133291     -0.38769127486916
  C   0.25401987699866      0.03457797312308     -0.21716206968920
  C   -1.17390683188997     -0.56490843727680     -0.16314244449009
  C   -1.98271443796385     -0.34160610711459     -1.46275411046160
  C   -3.14505864024078     -1.36737200501352     -1.35580334148390
  C   -2.57858444514817     -2.56240159499207     -0.51843416662992
  C   -1.17851667901607     -2.10756921285247     -0.00279822731067
  H   1.03218209307099      1.84167833435312     -0.42295734142357
  H   0.80253269740509     -0.42734405299716     -1.04671799685019
  H   0.78900180662805     -0.21610457880448      0.70751924768755
  H   -1.70635512466881     -0.11231099176143      0.66627254518641
  H   -2.32997151797554      0.68030791004401     -1.56117627268238
  H   -1.35923309427547     -0.56668211523625     -2.32029114233014
  H   -3.98633911460215     -0.91893661997159     -0.84001243632371
  H   -3.49520670558946     -1.68564707045286     -2.33056794878374
  H   -3.23756824017787     -2.78999077425847      0.31120617230878
  H   -2.49641323972592     -3.46146185276992     -1.11769952396305
  H   -0.39714752239826     -2.53604004543013     -0.61977002099951
  H   -0.99592890234576     -2.41642911655676      1.01947185085018
  O   7.29743682128424      1.42216632010176      0.20967731584234
  C   7.43838012285024      0.00871010005996      0.06783017471532
  C   6.02095440996438     -0.61765648772078      0.05336050040438
  C   5.14873987548819     -0.13099173852463     -1.12811995861095
  C   4.00190541575174     -1.17809548019685     -1.20262870942836
  C   4.60070624458662     -2.50786980956830     -0.63345616567599
  C   6.03331534898308     -2.15710082000278     -0.12912975617105
  H   8.18030529109025      1.83595586401971      0.23333226373523
  H   7.95376142938475     -0.25219077817590     -0.86450209976870
  H   8.01867942366509     -0.42195524901805      0.89355164426571
  H   5.52555466536379     -0.36784531115428      0.98530329305842
  H   4.78799497815130      0.88049564837775     -0.98338934055072
  H   5.73375016103015     -0.14797600011993     -2.04039418476366
  H   3.16733456631974     -0.85651182028656     -0.59185433122962
  H   3.63424703174405     -1.30067932877652     -2.21457097922123
  H   3.99019234391009     -2.87765275272537      0.18208464154953
  H   4.63261014896772     -3.28514155308713     -1.38787088721569
  H   6.76838867022733     -2.42533878346321     -0.87919323670968
  H   6.28843933823204     -2.68083668310346      0.78441431803266
