38
Coordinates from ORCA-job dimer_003013/dimer_003013
  C   -0.14538467016659      1.41217514027214     -1.54979586617177
  C   0.81452120042206      0.72903769556286     -0.54132105897895
  C   0.10752947378144     -0.34285604176257      0.33971725631886
  C   -0.40123772307816     -1.53278539385644     -0.51135830970192
  C   1.08635958203468     -0.80616384969348      1.44049893388456
  C   0.96247253661701     -2.12430528697480      2.15525468404616
  O   1.97559086697822     -1.90435582221996      1.14700213203421
  H   0.36407439097569      2.22019944909539     -2.06493553243589
  H   -0.49683897290941      0.70944586030178     -2.29616776540662
  H   -1.00810019163037      1.82612088479872     -1.03866911604513
  H   1.63349810961936      0.26011820477423     -1.07555553093090
  H   1.24429704507210      1.48530119419886      0.10690933089441
  H   -0.73830018371251      0.12537012445510      0.83663018921549
  H   0.43463218789834     -2.04864751581442     -0.97176518159462
  H   -0.95254200452386     -2.24125457187642      0.09478931709781
  H   -1.06353108365224     -1.18009695119674     -1.29251117076328
  H   1.54756136452767      0.01031745745122      1.99552460155935
  H   1.31865301512873     -2.20933807505515      3.18185142187966
  H   0.16199246396550     -2.81369789530751      1.89487102748959
  C   6.00971734967209     -0.62178713265918      1.64721720073045
  C   5.39870420413903     -1.40192234599671      0.45427978773681
  C   4.54682900189636     -0.50226368052286     -0.48741943789492
  C   5.40555888922793      0.57393925305438     -1.19675578719848
  C   3.82259056786698     -1.41642041436268     -1.49738622680836
  C   3.41017879841408     -0.96997517317324     -2.87348463708270
  O   4.55068298193126     -1.83787341662437     -2.67099215716759
  H   6.51016224028302     -1.30445733020540      2.32615003513834
  H   6.73650542315375      0.10891809976659      1.31252711141782
  H   5.23343599733088     -0.10316170146056      2.19917664654961
  H   6.18660118824535     -1.87391830145370     -0.12395247009725
  H   4.75957559886883     -2.19103675848404      0.83832017393478
  H   3.78317689829707     -0.01427592379995      0.11081942365585
  H   6.10015803655765      0.10354289244730     -1.88479264781221
  H   4.78345229841405      1.26545914646363     -1.75185068638126
  H   5.97096996250260      1.14582202797286     -0.47166719741164
  H   3.22092584027923     -2.19408692053338     -1.02523430504095
  H   2.53877086255666     -1.42540537527797     -3.34231307486514
  H   3.62642845301469      0.04174044769666     -3.20816511379413
