38
Coordinates from ORCA-job dimer_001972/dimer_001972
  C   2.70583001154596      1.35953544965193     -0.30951042682240
  C   1.69440407792048      0.20359502080800     -0.14611873305863
  C   2.04133491019933     -1.10800022410393     -0.93254580161334
  C   2.14970539550267     -1.89142432926407      0.41893901906584
  C   3.55824656992563     -2.45797937889072      0.72135965364809
  O   3.56474162371026     -2.93368856071609      2.06708119850100
  C   1.78974784759716     -0.58840589024697      1.20460750313580
  H   3.71305749522871      1.01569885257733     -0.10463946459616
  H   2.67901871200796      1.75318063297182     -1.32059006399058
  H   2.47695868287622      2.16740094949521      0.37823560175537
  H   0.69343496964206      0.56313158421996     -0.35334222741850
  H   1.25747303065678     -1.45848354667495     -1.59294224221673
  H   2.96673220558744     -1.05734855408455     -1.49226630006275
  H   1.41695490070134     -2.68191703542714      0.53079310863346
  H   3.78995658293494     -3.25893919055251      0.00771509521559
  H   4.30049890375415     -1.66510805236973      0.57393686841183
  H   4.44366547763651     -3.30156938077019      2.27717783647578
  H   2.57181513417508     -0.24634217294076      1.87092439678850
  H   0.86204556156144     -0.64431419889474      1.76113537660413
  C   6.60718926116645      1.59297107319726      0.57159312108581
  C   6.76512117105073      0.16191381563246      0.01716049937822
  C   7.99442761845419     -0.11486008381094     -0.91451458333297
  C   8.31008832784776     -1.40430501762887     -0.08568754181072
  C   9.77404010309932     -1.59680880064818      0.37430613326171
  O   9.80602131423593     -2.70218320613968      1.27766406966302
  C   7.29414354389782     -0.93441914001566      1.00442482844003
  H   7.52904304684166      1.92363553483636      1.03715476211065
  H   6.35779780545720      2.28811303176416     -0.22406418990245
  H   5.81799766693501      1.62985595529881      1.31624288387930
  H   5.84379121771129     -0.15143227463099     -0.45952670287293
  H   7.77952305411698     -0.25954058401336     -1.96629629013015
  H   8.76451050597435      0.64041473960984     -0.81639506867937
  H   7.97333733345931     -2.30410120742521     -0.58766277463556
  H   10.41181309504854     -1.77161499587469     -0.50201449658558
  H   10.12432751917088     -0.67516574061235      0.85482813293735
  H   10.72121687273191     -2.84597005142270      1.58316462266491
  H   7.78627517234144     -0.50948747011859      1.87066799335209
  H   6.57725427729426     -1.67194755278543      1.34111820272027
