38
Coordinates from ORCA-job dimer_002856/dimer_002856
  C   1.54952294643802      1.46907315897738      0.39035602270204
  C   2.18747402548949      0.10244436798139      0.02301254446032
  C   2.73439353795356     -0.60025414174800      1.27097483853188
  C   1.82516951740199     -1.50049082171739      2.10008063083746
  C   2.96275900773284     -2.10674655689798      1.28470743626728
  C   2.67277516464668     -2.94903651338945      0.02481729257956
  O   3.14959829934747     -4.27794495048918      0.26109251861561
  H   2.28794064939937      2.12083281968599      0.84550846705506
  H   1.15560273286227      1.96184652353126     -0.49267190669555
  H   0.73905533916519      1.32864971087493      1.09790959491531
  H   1.44656591081665     -0.52503859565929     -0.45919975339628
  H   2.99258866563367      0.25709508896092     -0.68982098019254
  H   3.45203507084706     -0.00936653594305      1.81985718287245
  H   1.91847171194325     -1.48549378406436      3.17553610541877
  H   0.81658949027711     -1.65349483665000      1.74907964535329
  H   3.81884951404028     -2.46602265045122      1.83841500294132
  H   1.59757425028088     -2.94673338078533     -0.19014700206970
  H   3.17914506536275     -2.50623396361916     -0.84366564574710
  H   2.88378109314384     -4.86043817658834     -0.47509013598647
  C   6.02140654359444      1.55241729111821      0.15712349665586
  C   6.25729308632469      0.05928928971156     -0.19932481666282
  C   7.24673524513696     -0.58633220158551      0.77850921879785
  C   6.74566791645935     -1.10233861967033      2.12182814024008
  C   7.24852884639960     -2.08683147267586      1.07125291626240
  C   6.25740806293342     -3.04909298178877      0.39073889794617
  O   5.79362715665787     -3.99581801735530      1.35058524730404
  H   6.95015736129597      2.11032073385844      0.10376631807358
  H   5.31002474548672      2.00533657291590     -0.52576874262031
  H   5.63281658827595      1.63874823427225      1.16623188218452
  H   5.30916565145896     -0.46243456559170     -0.16441507658179
  H   6.63636626014390     -0.02179242981042     -1.21399755405689
  H   8.21647735050827     -0.11238208972686      0.78275250861190
  H   7.34582328098893     -0.94091991760669      3.00365700994833
  H   5.68359938384869     -1.06794840778998      2.30139941729235
  H   8.21405574365623     -2.52880966917873      1.26571231100898
  H   5.43144270363356     -2.47543895152523     -0.03358196025495
  H   6.76297740347480     -3.54606051724315     -0.44766614341071
  H   4.93216667693739     -4.35488904233652      1.04994707079843
