38
Coordinates from ORCA-job dimer_001816/dimer_001816
  C   1.11503656451099      1.23981328794278     -1.22971668569592
  C   0.72100168826459      0.22076552249549     -0.12201433136843
  C   1.85104451419585      0.15272186745631      0.94990465991676
  O   -0.48684698891957      0.71423637728843      0.46549012132462
  C   0.43924243793431     -1.14970814529899     -0.78356441387596
  C   1.56719179983476     -2.07879447205191     -1.20560607369122
  C   0.64586475652110     -2.47204143612725     -0.05380365458493
  H   2.03729202632188      0.92650876790786     -1.70725572806078
  H   0.33074301648588      1.29908375742103     -1.97631436323364
  H   1.25637984069524      2.22286670212500     -0.79385973634298
  H   2.02397761435497      1.14785321913500      1.34322060706610
  H   1.57004139410094     -0.49290734475276      1.77294674082303
  H   2.77628586168773     -0.21363693625161      0.51651543534175
  H   -0.79268829539631      0.07350410531556      1.13390833373169
  H   -0.41094925567387     -1.10413306763676     -1.44734601130381
  H   1.46635763832000     -2.60503910973395     -2.14233229300087
  H   2.58037807414487     -1.78953536107816     -0.96852054626811
  H   1.05408684781989     -2.45893148007447      0.94321676010074
  H   -0.07283568505544     -3.26006668074641     -0.21926053557792
  C   5.57742565000066      0.76900731153562      0.91279963561778
  C   6.04474023897293     -0.42987218000467      0.03771773479812
  C   6.74637048054456     -1.49085101676665      0.94122363443840
  O   4.86500225436589     -0.99264987930922     -0.54523056948749
  C   6.95719435190775      0.10018364885226     -1.09282682837440
  C   8.46643695033968      0.21769409973649     -0.93953688247048
  C   7.87530694777909     -0.82326724286510     -1.88642468388745
  H   6.43782922839599      1.27113740641491      1.34163208369235
  H   5.02322992075702      1.47685086447796      0.30569065128948
  H   4.93500721099193      0.42010580000377      1.71403730107773
  H   6.02800337232645     -1.86287644120064      1.66391549606503
  H   7.11255611342677     -2.32959894826688      0.36127926519250
  H   7.57677285855800     -1.05147468664111      1.48072286358722
  H   5.13210545190242     -1.66771917740702     -1.19663123803740
  H   6.47825060042558      0.88426915650307     -1.66012511473218
  H   8.95289652802490      1.08048481039007     -1.36960906109958
  H   8.92391954547140     -0.12915063409585     -0.02705820621725
  H   7.94512832572304     -1.86136928292706     -1.60424255499614
  H   7.96621611993769     -0.65540918176510     -2.94895581175647
