38
Coordinates from ORCA-job dimer_004081/dimer_004081
  O   0.00598466093992      1.54445993998699     -1.26272996762614
  N   0.23844979292351      0.19247103829856     -1.17176158692496
  C   -0.62835563816922     -0.45773991745449     -0.51394943997306
  C   -1.86426510114221      0.11696406137382      0.18040722371162
  C   -1.88160099713742     -0.31374947191601      1.67408268251448
  C   -1.75893335494377     -1.85328603681137      1.81218324129694
  C   -0.45988287689855     -2.36406559929947      1.13787140977104
  C   -0.42861975749399     -1.96586324324715     -0.36365621735145
  H   0.75236748353471      1.89831860651780     -1.79534357865398
  H   -1.87408151287514      1.19873987433864      0.09238158629302
  H   -2.75201625025177     -0.26768944137129     -0.31564916712511
  H   -1.05611858352226      0.16226660825970      2.19332544062496
  H   -2.79990527428098      0.03075346370209      2.13857492820092
  H   -1.76130896313432     -2.12857150349310      2.86184144753181
  H   -2.61814310974075     -2.32822241142951      1.35056789006307
  H   0.40062536164898     -1.93715854161821      1.64194736178705
  H   -0.38975046055175     -3.44313663604537      1.22859842665735
  H   -1.23093828306071     -2.48132968674017     -0.88580715966037
  H   0.51049713847227     -2.25530803288048     -0.82335999054996
  O   6.33431864223186      1.27615512664233      1.53693909564702
  N   6.58427459911172     -0.03215125023267      1.19341998984741
  C   5.64169685658813     -0.61368042638310      0.57656077424574
  C   4.28518539569554     -0.01127925108606      0.20640416046443
  C   3.13544944189383     -0.91631471346362      0.73016479848088
  C   3.31369196126534     -2.37765402367770      0.24540611014547
  C   4.68110819095376     -2.94910651230766      0.70100980342000
  C   5.84822520593084     -2.07255201256661      0.16822526839849
  H   7.14515870308496      1.57710313485507      2.00340459983767
  H   4.19809587130534      0.99218287810658      0.60997141901832
  H   4.21917788702260      0.05583598031085     -0.87660940375371
  H   3.12499743536926     -0.89302905380807      1.81460382558474
  H   2.18706640397060     -0.52050045773050      0.38036811357621
  H   2.51128514074144     -2.99458571442034      0.63520237058332
  H   3.24954578791740     -2.40845720522767     -0.83702183969458
  H   4.71828685831583     -2.97658728025193      1.78501350311062
  H   4.79928285182183     -3.96727207397614      0.34471166774943
  H   5.87453379739016     -2.13482993650338     -0.91700912380899
  H   6.80282569507286     -2.42363827845024      0.54681833656066
