36
Coordinates from ORCA-job dimer_005570/dimer_005570
  C   2.61317154536120     -0.56295040653422     -1.15856388806574
  C   1.40646565521399     -0.85437992886248     -0.21616506550946
  C   1.79419736337123     -0.77925395617279      1.24602646350403
  C   1.79899694667807      0.33730096767633      2.02591004299813
  N   1.49544106900212      1.67138311191615      1.71315365774473
  N   2.25385093121022     -0.00678416038893      3.27656083226525
  C   2.54612171035866     -1.35859177120793      3.29615554079715
  C   2.28084708554310     -1.85421292775288      2.06521696495490
  H   3.41295870088380     -1.27210786936222     -0.97420037984687
  H   2.31937986404626     -0.63745571453471     -2.20067329201325
  H   3.00329704751009      0.43323745994546     -0.97924244389212
  H   0.60822120260892     -0.14975820927105     -0.42766842448878
  H   1.01566298204514     -1.84345999104503     -0.43340315005560
  H   0.97337299642236      2.19877029846016      2.39819363251852
  H   1.20342681497345      1.83535080125368      0.76171860539412
  H   2.40010551789628      0.64232760063338      4.03685294974871
  H   2.90690199971586     -1.84133938615340      4.19009540677823
  H   2.38960745310242     -2.87621460584872      1.75223458824985
  C   5.03978441290572      1.85363248825442      2.58799272199793
  C   5.25233678448689      0.94329378545329      1.34372163354408
  C   6.56190750927777      0.18610219593766      1.40471879841939
  C   6.73044696248832     -1.12671248205069      1.72282817442550
  N   5.80202119158644     -2.10677854241199      2.11098461400071
  N   8.07639567232305     -1.41384889810490      1.68458839138450
  C   8.77398328389624     -0.26841757853697      1.34018243845650
  C   7.87422699085185      0.72599080922876      1.17211039870037
  H   5.83997756133386      2.58190942751815      2.66201871957495
  H   4.09293874158051      2.37943101725861      2.51639326347653
  H   5.04281944287798      1.25775081558913      3.49344075059119
  H   4.42388170529609      0.24779492071298      1.26677615190517
  H   5.22854894078370      1.55897349456764      0.44974046092298
  H   5.90705950938329     -3.01951580867100      1.69177282811037
  H   4.84164105433257     -1.79556861214081      2.16258862414457
  H   8.48095211524014     -2.31094330350336      1.90933585644075
  H   9.84657966087459     -0.27519377183085      1.24008578826109
  H   8.09132857453704      1.74169272997915      0.89772034456137
