38
Coordinates from ORCA-job dimer_001891/dimer_001891
  C   0.64126384896071     -1.12566862757305      2.35544249049454
  C   1.06512853808372     -1.04681926182412      0.87032720923031
  C   0.34192571708101      0.06879228186575      0.07172099871333
  C   1.19884989581533      0.21855157600080     -1.21189901833014
  C   2.67846510394131     -0.11678187520501     -0.78022575354400
  O   3.56144925508057      0.99691137684145     -0.86704329289408
  C   2.56441281809216     -0.70317317506385      0.67408840918580
  H   0.83247033940747     -0.18190704629132      2.85431469819594
  H   -0.41734740943772     -1.34796590334440      2.44061796305822
  H   1.19561486152302     -1.90205924822628      2.87259241592156
  H   0.85964483783774     -1.99843905908278      0.39209213816848
  H   -0.69079274003633     -0.17887143869925     -0.14323303645160
  H   0.34979587302897      0.98893718837957      0.64478324352426
  H   0.86935311042337     -0.48845877350909     -1.96464709794375
  H   1.13854578945876      1.20953960890307     -1.64810048537226
  H   3.09461083827140     -0.86925466651052     -1.45331854222389
  H   3.22101080047367      1.72217231493155     -0.31121858156762
  H   2.86293936180749      0.05474880979546      1.39009402165644
  H   3.20951124191343     -1.56051637285860      0.81836262241327
  C   7.45495823269468     -1.17846914156886     -2.42041033743510
  C   6.56977480430067     -0.74828609511680     -1.22638099990248
  C   6.28029981907635     -1.91415907200903     -0.22384898957944
  C   6.30174079389292     -1.28813993471991      1.20453236756116
  C   6.40507599366573      0.25920174568524      0.97774933829106
  O   6.95240016984933      0.97897835177735      2.07271774370091
  C   7.19917871451879      0.36985686206509     -0.35997032936063
  H   8.41470585274095     -1.54240802837796     -2.07101204867522
  H   6.97607923434348     -1.97052166258748     -2.98639241019709
  H   7.63019049693351     -0.34114359849230     -3.08789318353651
  H   5.62387097324259     -0.37543164548915     -1.60563935016294
  H   5.32579696629962     -2.37742291114954     -0.44167584818184
  H   7.03728464320092     -2.68389882041680     -0.31111685804418
  H   5.42848612173415     -1.54847783448034      1.78943238567786
  H   7.17295195142858     -1.62792855202246      1.75339507855464
  H   5.40294158075965      0.66129389727239      0.81021554075728
  H   7.86450580058226      0.67402301075723      2.23242658424684
  H   8.25050878763028      0.17007378241766     -0.18576456562157
  H   7.10675998137845      1.34863393792642     -0.81481052032757
