42
Coordinates from ORCA-job dimer_002358/dimer_002358
  C   0.09603795671186      1.34886113164321      0.39293549806387
  C   -0.04050669294170     -0.16455709508465      0.08069884930279
  C   -1.53140526410379     -0.59277448940445      0.06597040299556
  C   0.62661344706707     -0.49531183603554     -1.27061432998396
  C   2.18085111641691     -0.33120381654864     -1.34787703926507
  C   2.29010248724854     -1.76217855886489     -1.97259961219876
  C   0.78261895929448     -2.01096808229263     -1.62986717179115
  H   1.13925241430157      1.64400176180933      0.40997505285006
  H   -0.41110350216455      1.93696180442758     -0.36365247136134
  H   -0.34259123374513      1.58380117523538      1.35648546993474
  H   0.47183078574970     -0.72423239257532      0.85577868407262
  H   -2.07306252817817     -0.04549340574377     -0.69729671520812
  H   -1.62398440603252     -1.65222392601445     -0.14548054805224
  H   -1.99857226288821     -0.39233052338400      1.02389051768298
  H   0.12815530648539      0.05166329080839     -2.06113851998324
  H   2.54763679857792      0.48562595112577     -1.95695052037509
  H   2.63964188760263     -0.26930731322295     -0.36917313344585
  H   2.48354957635686     -1.74517234550316     -3.03869747259806
  H   3.00175836088377     -2.42997141424888     -1.50216567742892
  H   0.64779243234171     -2.65685253930091     -0.77087845955088
  H   0.16313789742383     -2.37670395465805     -2.43952428847936
  C   7.33619491960180      1.62801765696289     -0.14194522891207
  C   7.15159200404482      0.08900022926885     -0.08141176229766
  C   5.64752840160252     -0.28795648594677     -0.11865199147398
  C   7.90028863100253     -0.58758503745344     -1.24826988811503
  C   9.46286258846323     -0.49980103116453     -1.23506930655088
  C   9.53833820333649     -2.04201248001471     -1.49469934886116
  C   8.00163732277337     -2.14902518497233     -1.21455585981586
  H   8.38794704539760      1.88979542896944     -0.11085877913121
  H   6.91490856571148      2.02191585838182     -1.06002326813179
  H   6.83856702117503      2.10801745209035      0.69352316860240
  H   7.57635696733036     -0.27348715107136      0.84842944159089
  H   5.19336665893695      0.06204984715291     -1.03848965614999
  H   5.52054866715304     -1.36344940587583     -0.06725384217555
  H   5.11671868683796      0.15999786834067      0.71396603176458
  H   7.49184256240608     -0.23782738056211     -2.18823516008209
  H   9.91427197056520      0.13528277037081     -1.98736897651413
  H   9.85272283173636     -0.21908420376911     -0.26425439212105
  H   9.79717682583643     -2.28403822034447     -2.51884043800537
  H   10.18390617845820     -2.60575562596561     -0.83199048235281
  H   7.78209780253059     -2.55618468525930     -0.23512731949011
  H   7.41596160869163     -2.68382964130556     -1.95216945695766
